MODEL 1
REMARK VINA RESULT:      -8.6      0.000      0.000
REMARK  Name = C:\Users\Docking\Desktop\test protocol\1iep_ligandH.pdb
REMARK  8 active torsions:
REMARK  status: ('A' for Active; 'I' for Inactive)
REMARK    1  A    between atoms: _5  and  _11
REMARK    2  A    between atoms: _19  and  _21
REMARK    3  A    between atoms: _22  and  _66
REMARK    4  A    between atoms: _27  and  _30
REMARK    5  A    between atoms: _32  and  _33
REMARK    6  A    between atoms: _38  and  _43
REMARK    7  A    between atoms: _43  and  _46
REMARK    8  A    between atoms: _53  and  _55
REMARK                            x       y       z     vdW  Elec       q    Type
REMARK                         _______ _______ _______ _____ _____    ______ ____
ROOT
ATOM     10  C   UNL     1     -15.225  20.298  29.900  0.00  0.00    +0.038 A 
ATOM     11  C   UNL     1     -14.363  19.544  29.063  0.00  0.00    +0.047 A 
ATOM     12  C   UNL     1     -13.482  18.526  29.613  0.00  0.00    +0.035 A 
ATOM     32  C   UNL     1     -13.506  18.300  31.020  0.00  0.00    +0.024 A 
ATOM     33  C   UNL     1     -14.375  19.058  31.886  0.00  0.00    +0.007 A 
ATOM     34  C   UNL     1     -15.245  20.065  31.349  0.00  0.00    -0.029 A 
ATOM     35  C   UNL     1     -16.151  20.852  32.325  0.00  0.00    +0.045 C 
ENDROOT
BRANCH  10   9
ATOM      4  C   UNL     1     -16.237  24.832  28.695  0.00  0.00    +0.077 A 
ATOM      5  C   UNL     1     -15.032  25.324  29.298  0.00  0.00    +0.048 A 
ATOM      6  C   UNL     1     -14.183  24.378  29.915  0.00  0.00    +0.116 A 
ATOM      7  N   UNL     1     -14.522  23.042  29.921  0.00  0.00    -0.223 NA
ATOM      8  C   UNL     1     -15.693  22.602  29.331  0.00  0.00    +0.220 A 
ATOM      9  N   UNL     1     -16.051  21.262  29.318  0.00  0.00    -0.283 N 
ATOM     36  H   UNL     1     -16.926  20.979  28.880  0.00  0.00    +0.155 HD
ATOM     37  N   UNL     1     -16.522  23.485  28.737  0.00  0.00    -0.214 NA
BRANCH   4   3
ATOM      1  C   UNL     1     -18.657  27.785  27.842  0.00  0.00    +0.020 A 
ATOM      2  C   UNL     1     -17.692  26.977  28.552  0.00  0.00    +0.013 A 
ATOM      3  C   UNL     1     -17.235  25.707  28.002  0.00  0.00    +0.019 A 
ATOM     38  C   UNL     1     -17.779  25.280  26.721  0.00  0.00    +0.120 A 
ATOM     39  N   UNL     1     -18.708  26.078  26.061  0.00  0.00    -0.263 NA
ATOM     40  C   UNL     1     -19.156  27.301  26.582  0.00  0.00    +0.111 A 
ENDBRANCH   4   3
ENDBRANCH  10   9
BRANCH  12  13
ATOM     13  N   UNL     1     -12.579  17.734  28.814  0.00  0.00    -0.281 N 
ATOM     14  C   UNL     1     -12.661  16.383  28.523  0.00  0.00    +0.248 C 
ATOM     30  O   UNL     1     -13.412  15.599  29.085  0.00  0.00    -0.270 OA
ATOM     31  H   UNL     1     -11.783  18.231  28.415  0.00  0.00    +0.155 HD
BRANCH  14  15
ATOM     15  C   UNL     1     -11.771  15.816  27.465  0.00  0.00    +0.037 A 
ATOM     16  C   UNL     1     -10.427  16.353  27.236  0.00  0.00    +0.013 A 
ATOM     17  C   UNL     1      -9.594  15.800  26.197  0.00  0.00    +0.005 A 
ATOM     18  C   UNL     1     -10.104  14.701  25.380  0.00  0.00    -0.033 A 
ATOM     28  C   UNL     1     -11.439  14.185  25.632  0.00  0.00    +0.005 A 
ATOM     29  C   UNL     1     -12.258  14.725  26.649  0.00  0.00    +0.013 A 
BRANCH  18  19
ATOM     19  C   UNL     1      -9.294  14.064  24.236  0.00  0.00    +0.119 C 
BRANCH  19  20
ATOM     20  N   UNL     1      -9.285  14.777  22.924  0.00  0.00    -0.302 NA
ATOM     21  C   UNL     1      -9.294  13.804  21.741  0.00  0.00    +0.066 C 
ATOM     22  C   UNL     1      -9.308  14.567  20.376  0.00  0.00    -0.064 C 
ATOM     23  N   UNL     1      -8.097  15.498  20.303  0.00  0.00    +0.379 N 
ATOM     24  C   UNL     1      -8.075  16.174  18.998  0.00  0.00    -0.096 C 
ATOM     25  H   UNL     1      -7.181  14.866  20.372  0.00  0.00    -0.082 HD
ATOM     26  C   UNL     1      -8.078  16.467  21.477  0.00  0.00    -0.064 C 
ATOM     27  C   UNL     1      -8.094  15.699  22.828  0.00  0.00    +0.066 C 
ENDBRANCH  19  20
ENDBRANCH  18  19
ENDBRANCH  14  15
ENDBRANCH  12  13
TORSDOF 6
ENDMDL
MODEL 2
REMARK VINA RESULT:      -8.6      1.851      2.675
REMARK  Name = C:\Users\Docking\Desktop\test protocol\1iep_ligandH.pdb
REMARK  8 active torsions:
REMARK  status: ('A' for Active; 'I' for Inactive)
REMARK    1  A    between atoms: _5  and  _11
REMARK    2  A    between atoms: _19  and  _21
REMARK    3  A    between atoms: _22  and  _66
REMARK    4  A    between atoms: _27  and  _30
REMARK    5  A    between atoms: _32  and  _33
REMARK    6  A    between atoms: _38  and  _43
REMARK    7  A    between atoms: _43  and  _46
REMARK    8  A    between atoms: _53  and  _55
REMARK                            x       y       z     vdW  Elec       q    Type
REMARK                         _______ _______ _______ _____ _____    ______ ____
ROOT
ATOM     10  C   UNL     1     -15.119  20.294  29.877  0.00  0.00    +0.038 A 
ATOM     11  C   UNL     1     -14.364  19.477  28.997  0.00  0.00    +0.047 A 
ATOM     12  C   UNL     1     -13.463  18.455  29.507  0.00  0.00    +0.035 A 
ATOM     32  C   UNL     1     -13.357  18.291  30.918  0.00  0.00    +0.024 A 
ATOM     33  C   UNL     1     -14.116  19.113  31.827  0.00  0.00    +0.007 A 
ATOM     34  C   UNL     1     -15.005  20.124  31.331  0.00  0.00    -0.029 A 
ATOM     35  C   UNL     1     -15.790  20.981  32.351  0.00  0.00    +0.045 C 
ENDROOT
BRANCH  10   9
ATOM      4  C   UNL     1     -16.176  24.827  28.706  0.00  0.00    +0.077 A 
ATOM      5  C   UNL     1     -14.941  25.317  29.246  0.00  0.00    +0.048 A 
ATOM      6  C   UNL     1     -14.065  24.371  29.824  0.00  0.00    +0.116 A 
ATOM      7  N   UNL     1     -14.408  23.036  29.852  0.00  0.00    -0.223 NA
ATOM      8  C   UNL     1     -15.608  22.597  29.323  0.00  0.00    +0.220 A 
ATOM      9  N   UNL     1     -15.970  21.259  29.333  0.00  0.00    -0.283 N 
ATOM     36  H   UNL     1     -16.867  20.977  28.940  0.00  0.00    +0.155 HD
ATOM     37  N   UNL     1     -16.462  23.481  28.767  0.00  0.00    -0.214 NA
BRANCH   4   3
ATOM      1  C   UNL     1     -18.635  27.778  27.969  0.00  0.00    +0.020 A 
ATOM      2  C   UNL     1     -17.639  26.970  28.633  0.00  0.00    +0.013 A 
ATOM      3  C   UNL     1     -17.204  25.703  28.060  0.00  0.00    +0.019 A 
ATOM     38  C   UNL     1     -17.801  25.279  26.802  0.00  0.00    +0.120 A 
ATOM     39  N   UNL     1     -18.760  26.078  26.186  0.00  0.00    -0.263 NA
ATOM     40  C   UNL     1     -19.187  27.298  26.729  0.00  0.00    +0.111 A 
ENDBRANCH   4   3
ENDBRANCH  10   9
BRANCH  12  13
ATOM     13  N   UNL     1     -12.664  17.602  28.662  0.00  0.00    -0.281 N 
ATOM     14  C   UNL     1     -12.681  16.218  28.590  0.00  0.00    +0.248 C 
ATOM     30  O   UNL     1     -13.238  15.491  29.399  0.00  0.00    -0.270 OA
ATOM     31  H   UNL     1     -12.007  18.075  28.042  0.00  0.00    +0.155 HD
BRANCH  14  15
ATOM     15  C   UNL     1     -11.965  15.545  27.465  0.00  0.00    +0.037 A 
ATOM     16  C   UNL     1     -10.600  15.930  27.094  0.00  0.00    +0.013 A 
ATOM     17  C   UNL     1      -9.938  15.276  25.993  0.00  0.00    +0.005 A 
ATOM     18  C   UNL     1     -10.640  14.228  25.256  0.00  0.00    -0.033 A 
ATOM     28  C   UNL     1     -11.990  13.862  25.649  0.00  0.00    +0.005 A 
ATOM     29  C   UNL     1     -12.643  14.502  26.726  0.00  0.00    +0.013 A 
BRANCH  18  19
ATOM     19  C   UNL     1     -10.018  13.491  24.055  0.00  0.00    +0.119 C 
BRANCH  19  20
ATOM     20  N   UNL     1      -9.218  12.264  24.345  0.00  0.00    -0.302 NA
ATOM     21  C   UNL     1      -8.048  12.097  23.371  0.00  0.00    +0.066 C 
ATOM     22  C   UNL     1      -7.209  10.821  23.702  0.00  0.00    -0.064 C 
ATOM     23  N   UNL     1      -8.119   9.592  23.670  0.00  0.00    +0.379 N 
ATOM     24  C   UNL     1      -7.322   8.384  23.925  0.00  0.00    -0.096 C 
ATOM     25  H   UNL     1      -8.540   9.510  22.641  0.00  0.00    -0.082 HD
ATOM     26  C   UNL     1      -9.287   9.751  24.634  0.00  0.00    -0.064 C 
ATOM     27  C   UNL     1     -10.097  11.038  24.314  0.00  0.00    +0.066 C 
ENDBRANCH  19  20
ENDBRANCH  18  19
ENDBRANCH  14  15
ENDBRANCH  12  13
TORSDOF 6
ENDMDL
MODEL 3
REMARK VINA RESULT:      -8.1      2.268     12.629
REMARK  Name = C:\Users\Docking\Desktop\test protocol\1iep_ligandH.pdb
REMARK  8 active torsions:
REMARK  status: ('A' for Active; 'I' for Inactive)
REMARK    1  A    between atoms: _5  and  _11
REMARK    2  A    between atoms: _19  and  _21
REMARK    3  A    between atoms: _22  and  _66
REMARK    4  A    between atoms: _27  and  _30
REMARK    5  A    between atoms: _32  and  _33
REMARK    6  A    between atoms: _38  and  _43
REMARK    7  A    between atoms: _43  and  _46
REMARK    8  A    between atoms: _53  and  _55
REMARK                            x       y       z     vdW  Elec       q    Type
REMARK                         _______ _______ _______ _____ _____    ______ ____
ROOT
ATOM     10  C   UNL     1      -9.155  14.081  23.733  0.00  0.00    +0.038 A 
ATOM     11  C   UNL     1      -9.576  15.094  24.632  0.00  0.00    +0.047 A 
ATOM     12  C   UNL     1     -10.736  14.906  25.489  0.00  0.00    +0.035 A 
ATOM     32  C   UNL     1     -11.445  13.672  25.405  0.00  0.00    +0.024 A 
ATOM     33  C   UNL     1     -11.032  12.632  24.496  0.00  0.00    +0.007 A 
ATOM     34  C   UNL     1      -9.889  12.812  23.647  0.00  0.00    -0.029 A 
ATOM     35  C   UNL     1      -9.496  11.666  22.687  0.00  0.00    +0.045 C 
ENDROOT
BRANCH  10   9
ATOM      4  C   UNL     1      -7.082  15.695  19.716  0.00  0.00    +0.077 A 
ATOM      5  C   UNL     1      -8.343  16.081  19.150  0.00  0.00    +0.048 A 
ATOM      6  C   UNL     1      -9.502  15.840  19.922  0.00  0.00    +0.116 A 
ATOM      7  N   UNL     1      -9.396  15.257  21.166  0.00  0.00    -0.223 NA
ATOM      8  C   UNL     1      -8.165  14.895  21.682  0.00  0.00    +0.220 A 
ATOM      9  N   UNL     1      -8.034  14.315  22.934  0.00  0.00    -0.283 N 
ATOM     36  H   UNL     1      -7.109  14.056  23.276  0.00  0.00    +0.155 HD
ATOM     37  N   UNL     1      -7.043  15.113  20.964  0.00  0.00    -0.214 NA
BRANCH   4   3
ATOM      1  C   UNL     1      -4.306  15.908  16.969  0.00  0.00    +0.020 A 
ATOM      2  C   UNL     1      -5.596  15.709  17.588  0.00  0.00    +0.013 A 
ATOM      3  C   UNL     1      -5.769  15.888  19.025  0.00  0.00    +0.019 A 
ATOM     38  C   UNL     1      -4.607  16.271  19.812  0.00  0.00    +0.120 A 
ATOM     39  N   UNL     1      -3.376  16.454  19.189  0.00  0.00    -0.263 NA
ATOM     40  C   UNL     1      -3.198  16.283  17.808  0.00  0.00    +0.111 A 
ENDBRANCH   4   3
ENDBRANCH  10   9
BRANCH  12  13
ATOM     13  N   UNL     1     -11.215  15.902  26.415  0.00  0.00    -0.281 N 
ATOM     14  C   UNL     1     -10.908  16.032  27.760  0.00  0.00    +0.248 C 
ATOM     30  O   UNL     1     -10.338  15.179  28.424  0.00  0.00    -0.270 OA
ATOM     31  H   UNL     1     -11.858  16.596  26.033  0.00  0.00    +0.155 HD
BRANCH  14  15
ATOM     15  C   UNL     1     -11.304  17.284  28.473  0.00  0.00    +0.037 A 
ATOM     16  C   UNL     1     -10.339  18.361  28.710  0.00  0.00    +0.013 A 
ATOM     17  C   UNL     1     -10.743  19.552  29.415  0.00  0.00    +0.005 A 
ATOM     18  C   UNL     1     -12.120  19.671  29.888  0.00  0.00    -0.033 A 
ATOM     28  C   UNL     1     -13.058  18.590  29.635  0.00  0.00    +0.005 A 
ATOM     29  C   UNL     1     -12.665  17.421  28.945  0.00  0.00    +0.013 A 
BRANCH  18  19
ATOM     19  C   UNL     1     -12.632  20.896  30.669  0.00  0.00    +0.119 C 
BRANCH  19  20
ATOM     20  N   UNL     1     -13.806  21.626  30.102  0.00  0.00    -0.302 NA
ATOM     21  C   UNL     1     -13.429  22.447  28.866  0.00  0.00    +0.066 C 
ATOM     22  C   UNL     1     -14.672  23.186  28.272  0.00  0.00    -0.064 C 
ATOM     23  N   UNL     1     -15.292  24.080  29.348  0.00  0.00    +0.379 N 
ATOM     24  C   UNL     1     -16.427  24.820  28.776  0.00  0.00    -0.096 C 
ATOM     25  H   UNL     1     -14.521  24.825  29.653  0.00  0.00    -0.082 HD
ATOM     26  C   UNL     1     -15.667  23.272  30.582  0.00  0.00    -0.064 C 
ATOM     27  C   UNL     1     -14.431  22.518  31.146  0.00  0.00    +0.066 C 
ENDBRANCH  19  20
ENDBRANCH  18  19
ENDBRANCH  14  15
ENDBRANCH  12  13
TORSDOF 6
ENDMDL
MODEL 4
REMARK VINA RESULT:      -8.0      1.232      1.925
REMARK  Name = C:\Users\Docking\Desktop\test protocol\1iep_ligandH.pdb
REMARK  8 active torsions:
REMARK  status: ('A' for Active; 'I' for Inactive)
REMARK    1  A    between atoms: _5  and  _11
REMARK    2  A    between atoms: _19  and  _21
REMARK    3  A    between atoms: _22  and  _66
REMARK    4  A    between atoms: _27  and  _30
REMARK    5  A    between atoms: _32  and  _33
REMARK    6  A    between atoms: _38  and  _43
REMARK    7  A    between atoms: _43  and  _46
REMARK    8  A    between atoms: _53  and  _55
REMARK                            x       y       z     vdW  Elec       q    Type
REMARK                         _______ _______ _______ _____ _____    ______ ____
ROOT
ATOM     10  C   UNL     1     -15.192  20.486  29.873  0.00  0.00    +0.038 A 
ATOM     11  C   UNL     1     -14.369  19.745  28.987  0.00  0.00    +0.047 A 
ATOM     12  C   UNL     1     -13.432  18.750  29.484  0.00  0.00    +0.035 A 
ATOM     32  C   UNL     1     -13.360  18.533  30.891  0.00  0.00    +0.024 A 
ATOM     33  C   UNL     1     -14.189  19.277  31.807  0.00  0.00    +0.007 A 
ATOM     34  C   UNL     1     -15.113  20.262  31.322  0.00  0.00    -0.029 A 
ATOM     35  C   UNL     1     -15.972  21.035  32.350  0.00  0.00    +0.045 C 
ENDROOT
BRANCH  10   9
ATOM      4  C   UNL     1     -16.381  24.990  28.718  0.00  0.00    +0.077 A 
ATOM      5  C   UNL     1     -15.152  25.512  29.242  0.00  0.00    +0.048 A 
ATOM      6  C   UNL     1     -14.244  24.589  29.807  0.00  0.00    +0.116 A 
ATOM      7  N   UNL     1     -14.552  23.246  29.840  0.00  0.00    -0.223 NA
ATOM      8  C   UNL     1     -15.747  22.776  29.327  0.00  0.00    +0.220 A 
ATOM      9  N   UNL     1     -16.074  21.429  29.341  0.00  0.00    -0.283 N 
ATOM     36  H   UNL     1     -16.969  21.123  28.960  0.00  0.00    +0.155 HD
ATOM     37  N   UNL     1     -16.632  23.637  28.783  0.00  0.00    -0.214 NA
BRANCH   4   3
ATOM      1  C   UNL     1     -19.262  26.246  26.389  0.00  0.00    +0.020 A 
ATOM      2  C   UNL     1     -18.252  25.387  26.962  0.00  0.00    +0.013 A 
ATOM      3  C   UNL     1     -17.441  25.839  28.086  0.00  0.00    +0.019 A 
ATOM     38  C   UNL     1     -17.679  27.175  28.610  0.00  0.00    +0.120 A 
ATOM     39  N   UNL     1     -18.658  27.980  28.037  0.00  0.00    -0.263 NA
ATOM     40  C   UNL     1     -19.444  27.557  26.954  0.00  0.00    +0.111 A 
ENDBRANCH   4   3
ENDBRANCH  10   9
BRANCH  12  13
ATOM     13  N   UNL     1     -12.565  17.973  28.632  0.00  0.00    -0.281 N 
ATOM     14  C   UNL     1     -11.181  17.979  28.595  0.00  0.00    +0.248 C 
ATOM     30  O   UNL     1     -10.477  18.814  29.144  0.00  0.00    -0.270 OA
ATOM     31  H   UNL     1     -13.029  17.343  27.978  0.00  0.00    +0.155 HD
BRANCH  14  15
ATOM     15  C   UNL     1     -10.475  16.910  27.824  0.00  0.00    +0.037 A 
ATOM     16  C   UNL     1     -11.211  15.792  27.228  0.00  0.00    +0.013 A 
ATOM     17  C   UNL     1     -10.504  14.765  26.504  0.00  0.00    +0.005 A 
ATOM     18  C   UNL     1      -9.052  14.853  26.371  0.00  0.00    -0.033 A 
ATOM     28  C   UNL     1      -8.348  15.976  26.968  0.00  0.00    +0.005 A 
ATOM     29  C   UNL     1      -9.037  16.983  27.679  0.00  0.00    +0.013 A 
BRANCH  18  19
ATOM     19  C   UNL     1      -8.214  13.792  25.634  0.00  0.00    +0.119 C 
BRANCH  19  20
ATOM     20  N   UNL     1      -8.204  13.843  24.141  0.00  0.00    -0.302 NA
ATOM     21  C   UNL     1      -8.036  15.272  23.617  0.00  0.00    +0.066 C 
ATOM     22  C   UNL     1      -8.005  15.305  22.054  0.00  0.00    -0.064 C 
ATOM     23  N   UNL     1      -9.288  14.676  21.509  0.00  0.00    +0.379 N 
ATOM     24  C   UNL     1      -9.289  14.758  20.041  0.00  0.00    -0.096 C 
ATOM     25  H   UNL     1     -10.147  15.281  21.882  0.00  0.00    -0.082 HD
ATOM     26  C   UNL     1      -9.465  13.256  22.027  0.00  0.00    -0.064 C 
ATOM     27  C   UNL     1      -9.464  13.230  23.581  0.00  0.00    +0.066 C 
ENDBRANCH  19  20
ENDBRANCH  18  19
ENDBRANCH  14  15
ENDBRANCH  12  13
TORSDOF 6
ENDMDL
MODEL 5
REMARK VINA RESULT:      -7.9      9.862     16.096
REMARK  Name = C:\Users\Docking\Desktop\test protocol\1iep_ligandH.pdb
REMARK  8 active torsions:
REMARK  status: ('A' for Active; 'I' for Inactive)
REMARK    1  A    between atoms: _5  and  _11
REMARK    2  A    between atoms: _19  and  _21
REMARK    3  A    between atoms: _22  and  _66
REMARK    4  A    between atoms: _27  and  _30
REMARK    5  A    between atoms: _32  and  _33
REMARK    6  A    between atoms: _38  and  _43
REMARK    7  A    between atoms: _43  and  _46
REMARK    8  A    between atoms: _53  and  _55
REMARK                            x       y       z     vdW  Elec       q    Type
REMARK                         _______ _______ _______ _____ _____    ______ ____
ROOT
ATOM     10  C   UNL     1      -4.231  16.089  19.183  0.00  0.00    +0.038 A 
ATOM     11  C   UNL     1      -3.918  15.301  18.046  0.00  0.00    +0.047 A 
ATOM     12  C   UNL     1      -3.064  15.814  16.987  0.00  0.00    +0.035 A 
ATOM     32  C   UNL     1      -2.542  17.134  17.119  0.00  0.00    +0.024 A 
ATOM     33  C   UNL     1      -2.851  17.950  18.268  0.00  0.00    +0.007 A 
ATOM     34  C   UNL     1      -3.695  17.449  19.315  0.00  0.00    -0.029 A 
ATOM     35  C   UNL     1      -3.998  18.370  20.520  0.00  0.00    +0.045 C 
ENDROOT
BRANCH  10   9
ATOM      4  C   UNL     1      -8.549  14.891  20.902  0.00  0.00    +0.077 A 
ATOM      5  C   UNL     1      -9.220  15.416  19.747  0.00  0.00    +0.048 A 
ATOM      6  C   UNL     1      -8.418  15.992  18.737  0.00  0.00    +0.116 A 
ATOM      7  N   UNL     1      -7.048  16.034  18.881  0.00  0.00    -0.223 NA
ATOM      8  C   UNL     1      -6.433  15.521  20.008  0.00  0.00    +0.220 A 
ATOM      9  N   UNL     1      -5.056  15.546  20.170  0.00  0.00    -0.283 N 
ATOM     36  H   UNL     1      -4.642  15.164  21.020  0.00  0.00    +0.155 HD
ATOM     37  N   UNL     1      -7.177  14.967  20.988  0.00  0.00    -0.214 NA
BRANCH   4   3
ATOM      1  C   UNL     1     -10.605  12.384  23.090  0.00  0.00    +0.020 A 
ATOM      2  C   UNL     1      -9.935  12.961  21.948  0.00  0.00    +0.013 A 
ATOM      3  C   UNL     1      -9.259  14.248  22.053  0.00  0.00    +0.019 A 
ATOM     38  C   UNL     1      -9.280  14.930  23.338  0.00  0.00    +0.120 A 
ATOM     39  N   UNL     1      -9.935  14.351  24.420  0.00  0.00    -0.263 NA
ATOM     40  C   UNL     1     -10.590  13.113  24.330  0.00  0.00    +0.111 A 
ENDBRANCH   4   3
ENDBRANCH  10   9
BRANCH  12  13
ATOM     13  N   UNL     1      -2.718  15.064  15.805  0.00  0.00    -0.281 N 
ATOM     14  C   UNL     1      -1.577  14.313  15.577  0.00  0.00    +0.248 C 
ATOM     30  O   UNL     1      -0.576  14.347  16.277  0.00  0.00    -0.270 OA
ATOM     31  H   UNL     1      -3.398  15.089  15.045  0.00  0.00    +0.155 HD
BRANCH  14  15
ATOM     15  C   UNL     1      -1.536  13.403  14.392  0.00  0.00    +0.037 A 
ATOM     16  C   UNL     1      -2.400  13.629  13.230  0.00  0.00    +0.013 A 
ATOM     17  C   UNL     1      -2.352  12.727  12.107  0.00  0.00    +0.005 A 
ATOM     18  C   UNL     1      -1.435  11.590  12.140  0.00  0.00    -0.033 A 
ATOM     28  C   UNL     1      -0.586  11.392  13.303  0.00  0.00    +0.005 A 
ATOM     29  C   UNL     1      -0.630  12.274  14.406  0.00  0.00    +0.013 A 
BRANCH  18  19
ATOM     19  C   UNL     1      -1.333  10.565  10.995  0.00  0.00    +0.119 C 
BRANCH  19  20
ATOM     20  N   UNL     1      -0.848   9.196  11.345  0.00  0.00    -0.302 NA
ATOM     21  C   UNL     1       0.387   8.800  10.531  0.00  0.00    +0.066 C 
ATOM     22  C   UNL     1       0.895   7.374  10.926  0.00  0.00    -0.064 C 
ATOM     23  N   UNL     1      -0.234   6.361  10.726  0.00  0.00    +0.379 N 
ATOM     24  C   UNL     1       0.258   5.011  11.040  0.00  0.00    -0.096 C 
ATOM     25  H   UNL     1      -0.514   6.376   9.647  0.00  0.00    -0.082 HD
ATOM     26  C   UNL     1      -1.467   6.749  11.528  0.00  0.00    -0.064 C 
ATOM     27  C   UNL     1      -1.946   8.179  11.150  0.00  0.00    +0.066 C 
ENDBRANCH  19  20
ENDBRANCH  18  19
ENDBRANCH  14  15
ENDBRANCH  12  13
TORSDOF 6
ENDMDL
