MODEL 1
REMARK VINA RESULT:      -8.4      0.000      0.000
REMARK  Name = C:\Users\Docking\Desktop\test protocol\1iep_ligandH.pdb
REMARK  8 active torsions:
REMARK  status: ('A' for Active; 'I' for Inactive)
REMARK    1  A    between atoms: _5  and  _11
REMARK    2  A    between atoms: _19  and  _21
REMARK    3  A    between atoms: _22  and  _66
REMARK    4  A    between atoms: _27  and  _30
REMARK    5  A    between atoms: _32  and  _33
REMARK    6  A    between atoms: _38  and  _43
REMARK    7  A    between atoms: _43  and  _46
REMARK    8  A    between atoms: _53  and  _55
REMARK                            x       y       z     vdW  Elec       q    Type
REMARK                         _______ _______ _______ _____ _____    ______ ____
ROOT
ATOM     10  C   UNL     1       5.046   8.273  -1.746  0.00  0.00    +0.038 A 
ATOM     11  C   UNL     1       3.934   8.108  -0.881  0.00  0.00    +0.047 A 
ATOM     12  C   UNL     1       4.036   8.400   0.540  0.00  0.00    +0.035 A 
ATOM     32  C   UNL     1       5.286   8.861   1.047  0.00  0.00    +0.024 A 
ATOM     33  C   UNL     1       6.427   9.033   0.183  0.00  0.00    +0.007 A 
ATOM     34  C   UNL     1       6.333   8.744  -1.219  0.00  0.00    -0.029 A 
ATOM     35  C   UNL     1       7.590   8.941  -2.098  0.00  0.00    +0.045 C 
ENDROOT
BRANCH  10   9
ATOM      4  C   UNL     1       2.820   6.041  -5.366  0.00  0.00    +0.077 A 
ATOM      5  C   UNL     1       1.904   5.387  -4.477  0.00  0.00    +0.048 A 
ATOM      6  C   UNL     1       2.043   5.646  -3.095  0.00  0.00    +0.116 A 
ATOM      7  N   UNL     1       3.029   6.498  -2.646  0.00  0.00    -0.223 NA
ATOM      8  C   UNL     1       3.898   7.111  -3.530  0.00  0.00    +0.220 A 
ATOM      9  N   UNL     1       4.892   7.978  -3.102  0.00  0.00    -0.283 N 
ATOM     36  H   UNL     1       5.517   8.405  -3.785  0.00  0.00    +0.155 HD
ATOM     37  N   UNL     1       3.786   6.879  -4.855  0.00  0.00    -0.214 NA
BRANCH   4   3
ATOM      1  C   UNL     1       1.658   5.990  -9.100  0.00  0.00    +0.020 A 
ATOM      2  C   UNL     1       1.627   6.171  -7.667  0.00  0.00    +0.013 A 
ATOM      3  C   UNL     1       2.798   5.872  -6.853  0.00  0.00    +0.019 A 
ATOM     38  C   UNL     1       3.994   5.388  -7.525  0.00  0.00    +0.120 A 
ATOM     39  N   UNL     1       3.994   5.222  -8.907  0.00  0.00    -0.263 NA
ATOM     40  C   UNL     1       2.873   5.505  -9.700  0.00  0.00    +0.111 A 
ENDBRANCH   4   3
ENDBRANCH  10   9
BRANCH  12  13
ATOM     13  N   UNL     1       2.943   8.244   1.468  0.00  0.00    -0.281 N 
ATOM     14  C   UNL     1       2.598   7.117   2.195  0.00  0.00    +0.248 C 
ATOM     30  O   UNL     1       3.052   6.000   1.996  0.00  0.00    -0.270 OA
ATOM     31  H   UNL     1       2.352   9.064   1.605  0.00  0.00    +0.155 HD
BRANCH  14  15
ATOM     15  C   UNL     1       1.592   7.246   3.293  0.00  0.00    +0.037 A 
ATOM     16  C   UNL     1       0.514   8.236   3.224  0.00  0.00    +0.013 A 
ATOM     17  C   UNL     1      -0.433   8.351   4.304  0.00  0.00    +0.005 A 
ATOM     18  C   UNL     1      -0.307   7.472   5.464  0.00  0.00    -0.033 A 
ATOM     28  C   UNL     1       0.769   6.495   5.505  0.00  0.00    +0.005 A 
ATOM     29  C   UNL     1       1.699   6.380   4.448  0.00  0.00    +0.013 A 
BRANCH  18  19
ATOM     19  C   UNL     1      -1.259   7.539   6.673  0.00  0.00    +0.119 C 
BRANCH  19  20
ATOM     20  N   UNL     1      -2.719   7.371   6.403  0.00  0.00    -0.302 NA
ATOM     21  C   UNL     1      -3.540   8.549   6.933  0.00  0.00    +0.066 C 
ATOM     22  C   UNL     1      -5.062   8.368   6.623  0.00  0.00    -0.064 C 
ATOM     23  N   UNL     1      -5.549   7.051   7.230  0.00  0.00    +0.379 N 
ATOM     24  C   UNL     1      -6.993   6.905   6.989  0.00  0.00    -0.096 C 
ATOM     25  H   UNL     1      -5.394   7.109   8.332  0.00  0.00    -0.082 HD
ATOM     26  C   UNL     1      -4.736   5.874   6.710  0.00  0.00    -0.064 C 
ATOM     27  C   UNL     1      -3.222   6.079   6.997  0.00  0.00    +0.066 C 
ENDBRANCH  19  20
ENDBRANCH  18  19
ENDBRANCH  14  15
ENDBRANCH  12  13
TORSDOF 6
ENDMDL
MODEL 2
REMARK VINA RESULT:      -8.4      5.581     13.300
REMARK  Name = C:\Users\Docking\Desktop\test protocol\1iep_ligandH.pdb
REMARK  8 active torsions:
REMARK  status: ('A' for Active; 'I' for Inactive)
REMARK    1  A    between atoms: _5  and  _11
REMARK    2  A    between atoms: _19  and  _21
REMARK    3  A    between atoms: _22  and  _66
REMARK    4  A    between atoms: _27  and  _30
REMARK    5  A    between atoms: _32  and  _33
REMARK    6  A    between atoms: _38  and  _43
REMARK    7  A    between atoms: _43  and  _46
REMARK    8  A    between atoms: _53  and  _55
REMARK                            x       y       z     vdW  Elec       q    Type
REMARK                         _______ _______ _______ _____ _____    ______ ____
ROOT
ATOM     10  C   UNL     1      -4.400   1.082   1.340  0.00  0.00    +0.038 A 
ATOM     11  C   UNL     1      -3.409   1.896   0.733  0.00  0.00    +0.047 A 
ATOM     12  C   UNL     1      -1.996   1.567   0.840  0.00  0.00    +0.035 A 
ATOM     32  C   UNL     1      -1.628   0.399   1.570  0.00  0.00    +0.024 A 
ATOM     33  C   UNL     1      -2.621  -0.438   2.194  0.00  0.00    +0.007 A 
ATOM     34  C   UNL     1      -4.016  -0.117   2.094  0.00  0.00    -0.029 A 
ATOM     35  C   UNL     1      -5.038  -1.047   2.789  0.00  0.00    +0.045 C 
ENDROOT
BRANCH  10   9
ATOM      4  C   UNL     1      -8.339   3.366   2.858  0.00  0.00    +0.077 A 
ATOM      5  C   UNL     1      -7.675   3.855   4.031  0.00  0.00    +0.048 A 
ATOM      6  C   UNL     1      -6.322   3.490   4.211  0.00  0.00    +0.116 A 
ATOM      7  N   UNL     1      -5.690   2.695   3.279  0.00  0.00    -0.223 NA
ATOM      8  C   UNL     1      -6.360   2.239   2.159  0.00  0.00    +0.220 A 
ATOM      9  N   UNL     1      -5.741   1.445   1.205  0.00  0.00    -0.283 N 
ATOM     36  H   UNL     1      -6.272   1.123   0.397  0.00  0.00    +0.155 HD
ATOM     37  N   UNL     1      -7.653   2.572   1.965  0.00  0.00    -0.214 NA
BRANCH   4   3
ATOM      1  C   UNL     1     -11.631   5.247   1.897  0.00  0.00    +0.020 A 
ATOM      2  C   UNL     1     -10.241   5.010   2.211  0.00  0.00    +0.013 A 
ATOM      3  C   UNL     1      -9.767   3.668   2.526  0.00  0.00    +0.019 A 
ATOM     38  C   UNL     1     -10.733   2.579   2.513  0.00  0.00    +0.120 A 
ATOM     39  N   UNL     1     -12.066   2.839   2.209  0.00  0.00    -0.263 NA
ATOM     40  C   UNL     1     -12.534   4.126   1.906  0.00  0.00    +0.111 A 
ENDBRANCH   4   3
ENDBRANCH  10   9
BRANCH  12  13
ATOM     13  N   UNL     1      -0.945   2.359   0.252  0.00  0.00    -0.281 N 
ATOM     14  C   UNL     1      -0.456   2.300  -1.043  0.00  0.00    +0.248 C 
ATOM     30  O   UNL     1      -0.706   1.404  -1.836  0.00  0.00    -0.270 OA
ATOM     31  H   UNL     1      -0.508   3.048   0.864  0.00  0.00    +0.155 HD
BRANCH  14  15
ATOM     15  C   UNL     1       0.452   3.385  -1.523  0.00  0.00    +0.037 A 
ATOM     16  C   UNL     1       1.097   4.307  -0.584  0.00  0.00    +0.013 A 
ATOM     17  C   UNL     1       1.955   5.356  -1.074  0.00  0.00    +0.005 A 
ATOM     18  C   UNL     1       2.175   5.488  -2.512  0.00  0.00    -0.033 A 
ATOM     28  C   UNL     1       1.528   4.557  -3.421  0.00  0.00    +0.005 A 
ATOM     29  C   UNL     1       0.685   3.528  -2.944  0.00  0.00    +0.013 A 
BRANCH  18  19
ATOM     19  C   UNL     1       3.059   6.590  -3.126  0.00  0.00    +0.119 C 
BRANCH  19  20
ATOM     20  N   UNL     1       3.893   6.220  -4.308  0.00  0.00    -0.302 NA
ATOM     21  C   UNL     1       5.347   6.673  -4.150  0.00  0.00    +0.066 C 
ATOM     22  C   UNL     1       6.210   6.258  -5.386  0.00  0.00    -0.064 C 
ATOM     23  N   UNL     1       5.594   6.847  -6.656  0.00  0.00    +0.379 N 
ATOM     24  C   UNL     1       6.435   6.506  -7.813  0.00  0.00    -0.096 C 
ATOM     25  H   UNL     1       5.597   7.956  -6.550  0.00  0.00    -0.082 HD
ATOM     26  C   UNL     1       4.147   6.403  -6.819  0.00  0.00    -0.064 C 
ATOM     27  C   UNL     1       3.305   6.795  -5.573  0.00  0.00    +0.066 C 
ENDBRANCH  19  20
ENDBRANCH  18  19
ENDBRANCH  14  15
ENDBRANCH  12  13
TORSDOF 6
ENDMDL
MODEL 3
REMARK VINA RESULT:      -8.3      7.541     12.961
REMARK  Name = C:\Users\Docking\Desktop\test protocol\1iep_ligandH.pdb
REMARK  8 active torsions:
REMARK  status: ('A' for Active; 'I' for Inactive)
REMARK    1  A    between atoms: _5  and  _11
REMARK    2  A    between atoms: _19  and  _21
REMARK    3  A    between atoms: _22  and  _66
REMARK    4  A    between atoms: _27  and  _30
REMARK    5  A    between atoms: _32  and  _33
REMARK    6  A    between atoms: _38  and  _43
REMARK    7  A    between atoms: _43  and  _46
REMARK    8  A    between atoms: _53  and  _55
REMARK                            x       y       z     vdW  Elec       q    Type
REMARK                         _______ _______ _______ _____ _____    ______ ____
ROOT
ATOM     10  C   UNL     1      -3.238  -0.302   1.759  0.00  0.00    +0.038 A 
ATOM     11  C   UNL     1      -2.419   0.455   0.883  0.00  0.00    +0.047 A 
ATOM     12  C   UNL     1      -1.307   1.245   1.387  0.00  0.00    +0.035 A 
ATOM     32  C   UNL     1      -1.056   1.241   2.790  0.00  0.00    +0.024 A 
ATOM     33  C   UNL     1      -1.880   0.478   3.695  0.00  0.00    +0.007 A 
ATOM     34  C   UNL     1      -2.980  -0.302   3.204  0.00  0.00    -0.029 A 
ATOM     35  C   UNL     1      -3.833  -1.095   4.221  0.00  0.00    +0.045 C 
ENDROOT
BRANCH  10   9
ATOM      4  C   UNL     1      -7.717  -0.686   0.076  0.00  0.00    +0.077 A 
ATOM      5  C   UNL     1      -7.989   0.702   0.315  0.00  0.00    +0.048 A 
ATOM      6  C   UNL     1      -6.952   1.479   0.878  0.00  0.00    +0.116 A 
ATOM      7  N   UNL     1      -5.737   0.900   1.177  0.00  0.00    -0.223 NA
ATOM      8  C   UNL     1      -5.509  -0.442   0.935  0.00  0.00    +0.220 A 
ATOM      9  N   UNL     1      -4.292  -1.043   1.220  0.00  0.00    -0.283 N 
ATOM     36  H   UNL     1      -4.166  -2.038   1.035  0.00  0.00    +0.155 HD
ATOM     37  N   UNL     1      -6.483  -1.206   0.399  0.00  0.00    -0.214 NA
BRANCH   4   3
ATOM      1  C   UNL     1      -9.427  -3.928  -1.289  0.00  0.00    +0.020 A 
ATOM      2  C   UNL     1      -8.433  -3.054  -0.712  0.00  0.00    +0.013 A 
ATOM      3  C   UNL     1      -8.710  -1.636  -0.517  0.00  0.00    +0.019 A 
ATOM     38  C   UNL     1     -10.015  -1.132  -0.920  0.00  0.00    +0.120 A 
ATOM     39  N   UNL     1     -10.952  -1.997  -1.475  0.00  0.00    -0.263 NA
ATOM     40  C   UNL     1     -10.695  -3.363  -1.668  0.00  0.00    +0.111 A 
ENDBRANCH   4   3
ENDBRANCH  10   9
BRANCH  12  13
ATOM     13  N   UNL     1      -0.446   2.040   0.546  0.00  0.00    -0.281 N 
ATOM     14  C   UNL     1      -0.650   2.411  -0.773  0.00  0.00    +0.248 C 
ATOM     30  O   UNL     1      -1.510   1.936  -1.499  0.00  0.00    -0.270 OA
ATOM     31  H   UNL     1       0.419   2.368   0.975  0.00  0.00    +0.155 HD
BRANCH  14  15
ATOM     15  C   UNL     1       0.237   3.452  -1.375  0.00  0.00    +0.037 A 
ATOM     16  C   UNL     1       0.142   3.803  -2.794  0.00  0.00    +0.013 A 
ATOM     17  C   UNL     1       1.022   4.798  -3.354  0.00  0.00    +0.005 A 
ATOM     18  C   UNL     1       2.005   5.451  -2.493  0.00  0.00    -0.033 A 
ATOM     28  C   UNL     1       2.074   5.087  -1.087  0.00  0.00    +0.005 A 
ATOM     29  C   UNL     1       1.214   4.111  -0.535  0.00  0.00    +0.013 A 
BRANCH  18  19
ATOM     19  C   UNL     1       2.998   6.508  -3.009  0.00  0.00    +0.119 C 
BRANCH  19  20
ATOM     20  N   UNL     1       3.798   6.161  -4.221  0.00  0.00    -0.302 NA
ATOM     21  C   UNL     1       5.257   6.609  -4.095  0.00  0.00    +0.066 C 
ATOM     22  C   UNL     1       6.085   6.217  -5.362  0.00  0.00    -0.064 C 
ATOM     23  N   UNL     1       5.435   6.832  -6.603  0.00  0.00    +0.379 N 
ATOM     24  C   UNL     1       6.243   6.514  -7.789  0.00  0.00    -0.096 C 
ATOM     25  H   UNL     1       5.443   7.940  -6.474  0.00  0.00    -0.082 HD
ATOM     26  C   UNL     1       3.983   6.394  -6.735  0.00  0.00    -0.064 C 
ATOM     27  C   UNL     1       3.176   6.762  -5.458  0.00  0.00    +0.066 C 
ENDBRANCH  19  20
ENDBRANCH  18  19
ENDBRANCH  14  15
ENDBRANCH  12  13
TORSDOF 6
ENDMDL
MODEL 4
REMARK VINA RESULT:      -8.3      8.737     13.325
REMARK  Name = C:\Users\Docking\Desktop\test protocol\1iep_ligandH.pdb
REMARK  8 active torsions:
REMARK  status: ('A' for Active; 'I' for Inactive)
REMARK    1  A    between atoms: _5  and  _11
REMARK    2  A    between atoms: _19  and  _21
REMARK    3  A    between atoms: _22  and  _66
REMARK    4  A    between atoms: _27  and  _30
REMARK    5  A    between atoms: _32  and  _33
REMARK    6  A    between atoms: _38  and  _43
REMARK    7  A    between atoms: _43  and  _46
REMARK    8  A    between atoms: _53  and  _55
REMARK                            x       y       z     vdW  Elec       q    Type
REMARK                         _______ _______ _______ _____ _____    ______ ____
ROOT
ATOM     10  C   UNL     1      -5.909   0.469   1.062  0.00  0.00    +0.038 A 
ATOM     11  C   UNL     1      -4.796   1.008   0.369  0.00  0.00    +0.047 A 
ATOM     12  C   UNL     1      -3.764   1.758   1.069  0.00  0.00    +0.035 A 
ATOM     32  C   UNL     1      -3.898   1.937   2.476  0.00  0.00    +0.024 A 
ATOM     33  C   UNL     1      -5.023   1.397   3.197  0.00  0.00    +0.007 A 
ATOM     34  C   UNL     1      -6.045   0.658   2.511  0.00  0.00    -0.029 A 
ATOM     35  C   UNL     1      -7.233   0.107   3.334  0.00  0.00    +0.045 C 
ENDROOT
BRANCH  10   9
ATOM      4  C   UNL     1      -7.938  -3.635  -0.381  0.00  0.00    +0.077 A 
ATOM      5  C   UNL     1      -6.987  -4.428   0.343  0.00  0.00    +0.048 A 
ATOM      6  C   UNL     1      -5.988  -3.742   1.069  0.00  0.00    +0.116 A 
ATOM      7  N   UNL     1      -5.952  -2.365   1.063  0.00  0.00    -0.223 NA
ATOM      8  C   UNL     1      -6.883  -1.629   0.353  0.00  0.00    +0.220 A 
ATOM      9  N   UNL     1      -6.870  -0.243   0.340  0.00  0.00    -0.283 N 
ATOM     36  H   UNL     1      -7.570   0.263  -0.203  0.00  0.00    +0.155 HD
ATOM     37  N   UNL     1      -7.846  -2.261  -0.349  0.00  0.00    -0.214 NA
BRANCH   4   3
ATOM      1  C   UNL     1      -9.952  -5.695  -3.027  0.00  0.00    +0.020 A 
ATOM      2  C   UNL     1      -8.838  -5.166  -2.274  0.00  0.00    +0.013 A 
ATOM      3  C   UNL     1      -9.055  -4.214  -1.193  0.00  0.00    +0.019 A 
ATOM     38  C   UNL     1     -10.423  -3.815  -0.895  0.00  0.00    +0.120 A 
ATOM     39  N   UNL     1     -11.476  -4.340  -1.638  0.00  0.00    -0.263 NA
ATOM     40  C   UNL     1     -11.278  -5.256  -2.682  0.00  0.00    +0.111 A 
ENDBRANCH   4   3
ENDBRANCH  10   9
BRANCH  12  13
ATOM     13  N   UNL     1      -2.616   2.336   0.416  0.00  0.00    -0.281 N 
ATOM     14  C   UNL     1      -1.651   1.690  -0.340  0.00  0.00    +0.248 C 
ATOM     30  O   UNL     1      -1.512   0.477  -0.392  0.00  0.00    -0.270 OA
ATOM     31  H   UNL     1      -2.499   3.343   0.525  0.00  0.00    +0.155 HD
BRANCH  14  15
ATOM     15  C   UNL     1      -0.693   2.510  -1.142  0.00  0.00    +0.037 A 
ATOM     16  C   UNL     1       0.755   2.382  -0.960  0.00  0.00    +0.013 A 
ATOM     17  C   UNL     1       1.656   3.197  -1.735  0.00  0.00    +0.005 A 
ATOM     18  C   UNL     1       1.111   4.149  -2.700  0.00  0.00    -0.033 A 
ATOM     28  C   UNL     1      -0.330   4.252  -2.864  0.00  0.00    +0.005 A 
ATOM     29  C   UNL     1      -1.216   3.455  -2.106  0.00  0.00    +0.013 A 
BRANCH  18  19
ATOM     19  C   UNL     1       1.997   5.074  -3.555  0.00  0.00    +0.119 C 
BRANCH  19  20
ATOM     20  N   UNL     1       3.202   5.664  -2.899  0.00  0.00    -0.302 NA
ATOM     21  C   UNL     1       2.832   6.533  -1.694  0.00  0.00    +0.066 C 
ATOM     22  C   UNL     1       4.105   7.124  -1.006  0.00  0.00    -0.064 C 
ATOM     23  N   UNL     1       4.907   7.930  -2.029  0.00  0.00    +0.379 N 
ATOM     24  C   UNL     1       6.075   8.535  -1.371  0.00  0.00    -0.096 C 
ATOM     25  H   UNL     1       4.256   8.759  -2.392  0.00  0.00    -0.082 HD
ATOM     26  C   UNL     1       5.277   7.074  -3.232  0.00  0.00    -0.064 C 
ATOM     27  C   UNL     1       4.006   6.468  -3.891  0.00  0.00    +0.066 C 
ENDBRANCH  19  20
ENDBRANCH  18  19
ENDBRANCH  14  15
ENDBRANCH  12  13
TORSDOF 6
ENDMDL
MODEL 5
REMARK VINA RESULT:      -8.3      4.952     13.960
REMARK  Name = C:\Users\Docking\Desktop\test protocol\1iep_ligandH.pdb
REMARK  8 active torsions:
REMARK  status: ('A' for Active; 'I' for Inactive)
REMARK    1  A    between atoms: _5  and  _11
REMARK    2  A    between atoms: _19  and  _21
REMARK    3  A    between atoms: _22  and  _66
REMARK    4  A    between atoms: _27  and  _30
REMARK    5  A    between atoms: _32  and  _33
REMARK    6  A    between atoms: _38  and  _43
REMARK    7  A    between atoms: _43  and  _46
REMARK    8  A    between atoms: _53  and  _55
REMARK                            x       y       z     vdW  Elec       q    Type
REMARK                         _______ _______ _______ _____ _____    ______ ____
ROOT
ATOM     10  C   UNL     1       2.595   6.548  -2.219  0.00  0.00    +0.038 A 
ATOM     11  C   UNL     1       3.441   7.016  -3.257  0.00  0.00    +0.047 A 
ATOM     12  C   UNL     1       3.361   6.463  -4.600  0.00  0.00    +0.035 A 
ATOM     32  C   UNL     1       2.406   5.435  -4.852  0.00  0.00    +0.024 A 
ATOM     33  C   UNL     1       1.539   4.947  -3.808  0.00  0.00    +0.007 A 
ATOM     34  C   UNL     1       1.615   5.487  -2.481  0.00  0.00    -0.029 A 
ATOM     35  C   UNL     1       0.665   4.920  -1.400  0.00  0.00    +0.045 C 
ENDROOT
BRANCH  10   9
ATOM      4  C   UNL     1       5.027   9.010   1.106  0.00  0.00    +0.077 A 
ATOM      5  C   UNL     1       6.168   9.157   0.248  0.00  0.00    +0.048 A 
ATOM      6  C   UNL     1       6.091   8.578  -1.038  0.00  0.00    +0.116 A 
ATOM      7  N   UNL     1       4.953   7.905  -1.427  0.00  0.00    -0.223 NA
ATOM      8  C   UNL     1       3.872   7.780  -0.575  0.00  0.00    +0.220 A 
ATOM      9  N   UNL     1       2.714   7.114  -0.948  0.00  0.00    -0.283 N 
ATOM     36  H   UNL     1       1.941   7.038  -0.288  0.00  0.00    +0.155 HD
ATOM     37  N   UNL     1       3.921   8.323   0.660  0.00  0.00    -0.214 NA
BRANCH   4   3
ATOM      1  C   UNL     1       6.006  10.556   4.564  0.00  0.00    +0.020 A 
ATOM      2  C   UNL     1       6.130  10.024   3.226  0.00  0.00    +0.013 A 
ATOM      3  C   UNL     1       4.955   9.569   2.493  0.00  0.00    +0.019 A 
ATOM     38  C   UNL     1       3.659   9.667   3.147  0.00  0.00    +0.120 A 
ATOM     39  N   UNL     1       3.570  10.182   4.436  0.00  0.00    -0.263 NA
ATOM     40  C   UNL     1       4.694  10.622   5.152  0.00  0.00    +0.111 A 
ENDBRANCH   4   3
ENDBRANCH  10   9
BRANCH  12  13
ATOM     13  N   UNL     1       4.200   6.893  -5.691  0.00  0.00    -0.281 N 
ATOM     14  C   UNL     1       5.485   6.475  -5.993  0.00  0.00    +0.248 C 
ATOM     30  O   UNL     1       6.194   5.822  -5.242  0.00  0.00    -0.270 OA
ATOM     31  H   UNL     1       3.796   7.590  -6.318  0.00  0.00    +0.155 HD
BRANCH  14  15
ATOM     15  C   UNL     1       6.075   6.850  -7.315  0.00  0.00    +0.037 A 
ATOM     16  C   UNL     1       5.572   6.270  -8.563  0.00  0.00    +0.013 A 
ATOM     17  C   UNL     1       6.169   6.636  -9.823  0.00  0.00    +0.005 A 
ATOM     18  C   UNL     1       7.277   7.589  -9.840  0.00  0.00    -0.033 A 
ATOM     28  C   UNL     1       7.752   8.153  -8.588  0.00  0.00    +0.005 A 
ATOM     29  C   UNL     1       7.170   7.796  -7.351  0.00  0.00    +0.013 A 
BRANCH  18  19
ATOM     19  C   UNL     1       7.988   8.020 -11.136  0.00  0.00    +0.119 C 
BRANCH  19  20
ATOM     20  N   UNL     1       7.228   8.899 -12.074  0.00  0.00    -0.302 NA
ATOM     21  C   UNL     1       7.979   9.121 -13.390  0.00  0.00    +0.066 C 
ATOM     22  C   UNL     1       7.159  10.024 -14.368  0.00  0.00    -0.064 C 
ATOM     23  N   UNL     1       6.850  11.359 -13.688  0.00  0.00    +0.379 N 
ATOM     24  C   UNL     1       6.129  12.232 -14.626  0.00  0.00    -0.096 C 
ATOM     25  H   UNL     1       7.822  11.849 -13.448  0.00  0.00    -0.082 HD
ATOM     26  C   UNL     1       6.105  11.147 -12.377  0.00  0.00    -0.064 C 
ATOM     27  C   UNL     1       6.916  10.224 -11.424  0.00  0.00    +0.066 C 
ENDBRANCH  19  20
ENDBRANCH  18  19
ENDBRANCH  14  15
ENDBRANCH  12  13
TORSDOF 6
ENDMDL
