MODEL 1
REMARK VINA RESULT:      -9.0      0.000      0.000
REMARK  Name = C:\Users\Docking\Desktop\test protocol\1iep_ligandH.pdb
REMARK  8 active torsions:
REMARK  status: ('A' for Active; 'I' for Inactive)
REMARK    1  A    between atoms: _5  and  _11
REMARK    2  A    between atoms: _19  and  _21
REMARK    3  A    between atoms: _22  and  _66
REMARK    4  A    between atoms: _27  and  _30
REMARK    5  A    between atoms: _32  and  _33
REMARK    6  A    between atoms: _38  and  _43
REMARK    7  A    between atoms: _43  and  _46
REMARK    8  A    between atoms: _53  and  _55
REMARK                            x       y       z     vdW  Elec       q    Type
REMARK                         _______ _______ _______ _____ _____    ______ ____
ROOT
ATOM     10  C   UNL     1      16.169  -0.736 -11.637  0.00  0.00    +0.038 A 
ATOM     11  C   UNL     1      15.854  -1.852 -10.820  0.00  0.00    +0.047 A 
ATOM     12  C   UNL     1      15.636  -3.170 -11.397  0.00  0.00    +0.035 A 
ATOM     32  C   UNL     1      15.751  -3.316 -12.810  0.00  0.00    +0.024 A 
ATOM     33  C   UNL     1      16.070  -2.192 -13.656  0.00  0.00    +0.007 A 
ATOM     34  C   UNL     1      16.283  -0.890 -13.093  0.00  0.00    -0.029 A 
ATOM     35  C   UNL     1      16.616   0.280 -14.048  0.00  0.00    +0.045 C 
ENDROOT
BRANCH  10   9
ATOM      4  C   UNL     1      14.810   3.762 -10.658  0.00  0.00    +0.077 A 
ATOM      5  C   UNL     1      13.617   3.635 -11.445  0.00  0.00    +0.048 A 
ATOM      6  C   UNL     1      13.394   2.399 -12.090  0.00  0.00    +0.116 A 
ATOM      7  N   UNL     1      14.302   1.372 -11.953  0.00  0.00    -0.223 NA
ATOM      8  C   UNL     1      15.444   1.528 -11.189  0.00  0.00    +0.220 A 
ATOM      9  N   UNL     1      16.368   0.506 -11.030  0.00  0.00    -0.283 N 
ATOM     36  H   UNL     1      17.201   0.663 -10.464  0.00  0.00    +0.155 HD
ATOM     37  N   UNL     1      15.681   2.699 -10.563  0.00  0.00    -0.214 NA
BRANCH   4   3
ATOM      1  C   UNL     1      16.874   6.639  -8.995  0.00  0.00    +0.020 A 
ATOM      2  C   UNL     1      16.566   5.429  -9.723  0.00  0.00    +0.013 A 
ATOM      3  C   UNL     1      15.185   5.005  -9.913  0.00  0.00    +0.019 A 
ATOM     38  C   UNL     1      14.130   5.834  -9.350  0.00  0.00    +0.120 A 
ATOM     39  N   UNL     1      14.456   6.993  -8.653  0.00  0.00    -0.263 NA
ATOM     40  C   UNL     1      15.782   7.410  -8.462  0.00  0.00    +0.111 A 
ENDBRANCH   4   3
ENDBRANCH  10   9
BRANCH  12  13
ATOM     13  N   UNL     1      15.306  -4.337 -10.618  0.00  0.00    -0.281 N 
ATOM     14  C   UNL     1      16.120  -5.416 -10.312  0.00  0.00    +0.248 C 
ATOM     30  O   UNL     1      17.197  -5.641 -10.844  0.00  0.00    -0.270 OA
ATOM     31  H   UNL     1      14.356  -4.373 -10.248  0.00  0.00    +0.155 HD
BRANCH  14  15
ATOM     15  C   UNL     1      15.665  -6.392  -9.277  0.00  0.00    +0.037 A 
ATOM     16  C   UNL     1      14.301  -6.927  -9.283  0.00  0.00    +0.013 A 
ATOM     17  C   UNL     1      13.884  -7.855  -8.262  0.00  0.00    +0.005 A 
ATOM     18  C   UNL     1      14.833  -8.256  -7.226  0.00  0.00    -0.033 A 
ATOM     28  C   UNL     1      16.182  -7.714  -7.247  0.00  0.00    +0.005 A 
ATOM     29  C   UNL     1      16.594  -6.803  -8.245  0.00  0.00    +0.013 A 
BRANCH  18  19
ATOM     19  C   UNL     1      14.467  -9.224  -6.086  0.00  0.00    +0.119 C 
BRANCH  19  20
ATOM     20  N   UNL     1      13.175  -8.988  -5.376  0.00  0.00    -0.302 NA
ATOM     21  C   UNL     1      13.186  -7.677  -4.585  0.00  0.00    +0.066 C 
ATOM     22  C   UNL     1      11.818  -7.434  -3.867  0.00  0.00    -0.064 C 
ATOM     23  N   UNL     1      11.511  -8.618  -2.948  0.00  0.00    +0.379 N 
ATOM     24  C   UNL     1      10.254  -8.367  -2.228  0.00  0.00    -0.096 C 
ATOM     25  H   UNL     1      12.328  -8.681  -2.192  0.00  0.00    -0.082 HD
ATOM     26  C   UNL     1      11.501  -9.927  -3.726  0.00  0.00    -0.064 C 
ATOM     27  C   UNL     1      12.854 -10.144  -4.460  0.00  0.00    +0.066 C 
ENDBRANCH  19  20
ENDBRANCH  18  19
ENDBRANCH  14  15
ENDBRANCH  12  13
TORSDOF 6
ENDMDL
MODEL 2
REMARK VINA RESULT:      -8.9      3.731     12.924
REMARK  Name = C:\Users\Docking\Desktop\test protocol\1iep_ligandH.pdb
REMARK  8 active torsions:
REMARK  status: ('A' for Active; 'I' for Inactive)
REMARK    1  A    between atoms: _5  and  _11
REMARK    2  A    between atoms: _19  and  _21
REMARK    3  A    between atoms: _22  and  _66
REMARK    4  A    between atoms: _27  and  _30
REMARK    5  A    between atoms: _32  and  _33
REMARK    6  A    between atoms: _38  and  _43
REMARK    7  A    between atoms: _43  and  _46
REMARK    8  A    between atoms: _53  and  _55
REMARK                            x       y       z     vdW  Elec       q    Type
REMARK                         _______ _______ _______ _____ _____    ______ ____
ROOT
ATOM     10  C   UNL     1      14.959  -1.104 -11.540  0.00  0.00    +0.038 A 
ATOM     11  C   UNL     1      15.317   0.086 -10.856  0.00  0.00    +0.047 A 
ATOM     12  C   UNL     1      15.204   1.386 -11.498  0.00  0.00    +0.035 A 
ATOM     32  C   UNL     1      14.719   1.439 -12.837  0.00  0.00    +0.024 A 
ATOM     33  C   UNL     1      14.352   0.239 -13.548  0.00  0.00    +0.007 A 
ATOM     34  C   UNL     1      14.464  -1.046 -12.921  0.00  0.00    -0.029 A 
ATOM     35  C   UNL     1      14.062  -2.300 -13.733  0.00  0.00    +0.045 C 
ENDROOT
BRANCH  10   9
ATOM      4  C   UNL     1      17.201  -5.272 -10.743  0.00  0.00    +0.077 A 
ATOM      5  C   UNL     1      18.183  -5.005 -11.754  0.00  0.00    +0.048 A 
ATOM      6  C   UNL     1      18.072  -3.787 -12.461  0.00  0.00    +0.116 A 
ATOM      7  N   UNL     1      17.050  -2.909 -12.171  0.00  0.00    -0.223 NA
ATOM      8  C   UNL     1      16.119  -3.198 -11.190  0.00  0.00    +0.220 A 
ATOM      9  N   UNL     1      15.088  -2.325 -10.876  0.00  0.00    -0.283 N 
ATOM     36  H   UNL     1      14.417  -2.578 -10.151  0.00  0.00    +0.155 HD
ATOM     37  N   UNL     1      16.203  -4.355 -10.502  0.00  0.00    -0.214 NA
BRANCH   4   3
ATOM      1  C   UNL     1      16.546  -7.812  -7.842  0.00  0.00    +0.020 A 
ATOM      2  C   UNL     1      16.531  -6.588  -8.608  0.00  0.00    +0.013 A 
ATOM      3  C   UNL     1      17.187  -6.514  -9.908  0.00  0.00    +0.019 A 
ATOM     38  C   UNL     1      17.854  -7.707 -10.407  0.00  0.00    +0.120 A 
ATOM     39  N   UNL     1      17.853  -8.872  -9.646  0.00  0.00    -0.263 NA
ATOM     40  C   UNL     1      17.227  -8.954  -8.393  0.00  0.00    +0.111 A 
ENDBRANCH   4   3
ENDBRANCH  10   9
BRANCH  12  13
ATOM     13  N   UNL     1      15.560   2.627 -10.856  0.00  0.00    -0.281 N 
ATOM     14  C   UNL     1      14.740   3.709 -10.578  0.00  0.00    +0.248 C 
ATOM     30  O   UNL     1      13.616   3.859 -11.034  0.00  0.00    -0.270 OA
ATOM     31  H   UNL     1      16.535   2.720 -10.572  0.00  0.00    +0.155 HD
BRANCH  14  15
ATOM     15  C   UNL     1      15.246   4.786  -9.674  0.00  0.00    +0.037 A 
ATOM     16  C   UNL     1      14.356   5.468  -8.732  0.00  0.00    +0.013 A 
ATOM     17  C   UNL     1      14.867   6.515  -7.883  0.00  0.00    +0.005 A 
ATOM     18  C   UNL     1      16.277   6.886  -7.973  0.00  0.00    -0.033 A 
ATOM     28  C   UNL     1      17.139   6.190  -8.914  0.00  0.00    +0.005 A 
ATOM     29  C   UNL     1      16.642   5.163  -9.748  0.00  0.00    +0.013 A 
BRANCH  18  19
ATOM     19  C   UNL     1      16.903   8.007  -7.122  0.00  0.00    +0.119 C 
BRANCH  19  20
ATOM     20  N   UNL     1      16.581   9.415  -7.501  0.00  0.00    -0.302 NA
ATOM     21  C   UNL     1      15.405   9.972  -6.693  0.00  0.00    +0.066 C 
ATOM     22  C   UNL     1      15.096  11.453  -7.086  0.00  0.00    -0.064 C 
ATOM     23  N   UNL     1      14.808  11.530  -8.587  0.00  0.00    +0.379 N 
ATOM     24  C   UNL     1      14.460  12.912  -8.949  0.00  0.00    -0.096 C 
ATOM     25  H   UNL     1      13.917  10.892  -8.793  0.00  0.00    -0.082 HD
ATOM     26  C   UNL     1      15.971  10.976  -9.397  0.00  0.00    -0.064 C 
ATOM     27  C   UNL     1      16.289   9.513  -8.978  0.00  0.00    +0.066 C 
ENDBRANCH  19  20
ENDBRANCH  18  19
ENDBRANCH  14  15
ENDBRANCH  12  13
TORSDOF 6
ENDMDL
MODEL 3
REMARK VINA RESULT:      -8.7      4.418     12.607
REMARK  Name = C:\Users\Docking\Desktop\test protocol\1iep_ligandH.pdb
REMARK  8 active torsions:
REMARK  status: ('A' for Active; 'I' for Inactive)
REMARK    1  A    between atoms: _5  and  _11
REMARK    2  A    between atoms: _19  and  _21
REMARK    3  A    between atoms: _22  and  _66
REMARK    4  A    between atoms: _27  and  _30
REMARK    5  A    between atoms: _32  and  _33
REMARK    6  A    between atoms: _38  and  _43
REMARK    7  A    between atoms: _43  and  _46
REMARK    8  A    between atoms: _53  and  _55
REMARK                            x       y       z     vdW  Elec       q    Type
REMARK                         _______ _______ _______ _____ _____    ______ ____
ROOT
ATOM     10  C   UNL     1      14.154  -8.718  -6.562  0.00  0.00    +0.038 A 
ATOM     11  C   UNL     1      14.472  -7.624  -7.406  0.00  0.00    +0.047 A 
ATOM     12  C   UNL     1      15.842  -7.365  -7.821  0.00  0.00    +0.035 A 
ATOM     32  C   UNL     1      16.864  -8.244  -7.359  0.00  0.00    +0.024 A 
ATOM     33  C   UNL     1      16.560  -9.362  -6.499  0.00  0.00    +0.007 A 
ATOM     34  C   UNL     1      15.210  -9.620  -6.085  0.00  0.00    -0.029 A 
ATOM     35  C   UNL     1      14.943 -10.828  -5.158  0.00  0.00    +0.045 C 
ENDROOT
BRANCH  10   9
ATOM      4  C   UNL     1      10.393  -7.941  -3.684  0.00  0.00    +0.077 A 
ATOM      5  C   UNL     1      11.154  -7.082  -2.823  0.00  0.00    +0.048 A 
ATOM      6  C   UNL     1      12.512  -6.872  -3.152  0.00  0.00    +0.116 A 
ATOM      7  N   UNL     1      13.058  -7.480  -4.262  0.00  0.00    -0.223 NA
ATOM      8  C   UNL     1      12.296  -8.304  -5.070  0.00  0.00    +0.220 A 
ATOM      9  N   UNL     1      12.822  -8.920  -6.195  0.00  0.00    -0.283 N 
ATOM     36  H   UNL     1      12.229  -9.526  -6.762  0.00  0.00    +0.155 HD
ATOM     37  N   UNL     1      10.997  -8.522  -4.776  0.00  0.00    -0.214 NA
BRANCH   4   3
ATOM      1  C   UNL     1       7.050  -9.279  -2.156  0.00  0.00    +0.020 A 
ATOM      2  C   UNL     1       8.459  -9.000  -2.315  0.00  0.00    +0.013 A 
ATOM      3  C   UNL     1       8.945  -8.257  -3.471  0.00  0.00    +0.019 A 
ATOM     38  C   UNL     1       7.973  -7.807  -4.455  0.00  0.00    +0.120 A 
ATOM     39  N   UNL     1       6.622  -8.092  -4.276  0.00  0.00    -0.263 NA
ATOM     40  C   UNL     1       6.143  -8.807  -3.168  0.00  0.00    +0.111 A 
ENDBRANCH   4   3
ENDBRANCH  10   9
BRANCH  12  13
ATOM     13  N   UNL     1      16.225  -6.265  -8.670  0.00  0.00    -0.281 N 
ATOM     14  C   UNL     1      16.490  -6.290 -10.029  0.00  0.00    +0.248 C 
ATOM     30  O   UNL     1      16.645  -7.310 -10.684  0.00  0.00    -0.270 OA
ATOM     31  H   UNL     1      16.312  -5.357  -8.213  0.00  0.00    +0.155 HD
BRANCH  14  15
ATOM     15  C   UNL     1      16.614  -4.995 -10.765  0.00  0.00    +0.037 A 
ATOM     16  C   UNL     1      15.641  -3.916 -10.574  0.00  0.00    +0.013 A 
ATOM     17  C   UNL     1      15.775  -2.683 -11.309  0.00  0.00    +0.005 A 
ATOM     18  C   UNL     1      16.888  -2.522 -12.241  0.00  0.00    -0.033 A 
ATOM     28  C   UNL     1      17.842  -3.607 -12.407  0.00  0.00    +0.005 A 
ATOM     29  C   UNL     1      17.713  -4.817 -11.689  0.00  0.00    +0.013 A 
BRANCH  18  19
ATOM     19  C   UNL     1      17.097  -1.250 -13.083  0.00  0.00    +0.119 C 
BRANCH  19  20
ATOM     20  N   UNL     1      17.868  -1.389 -14.354  0.00  0.00    -0.302 NA
ATOM     21  C   UNL     1      19.075  -0.448 -14.400  0.00  0.00    +0.066 C 
ATOM     22  C   UNL     1      19.883  -0.623 -15.727  0.00  0.00    -0.064 C 
ATOM     23  N   UNL     1      18.958  -0.377 -16.920  0.00  0.00    +0.379 N 
ATOM     24  C   UNL     1      19.729  -0.484 -18.168  0.00  0.00    -0.096 C 
ATOM     25  H   UNL     1      18.580   0.669 -16.844  0.00  0.00    -0.082 HD
ATOM     26  C   UNL     1      17.754  -1.307 -16.881  0.00  0.00    -0.064 C 
ATOM     27  C   UNL     1      16.975  -1.146 -15.546  0.00  0.00    +0.066 C 
ENDBRANCH  19  20
ENDBRANCH  18  19
ENDBRANCH  14  15
ENDBRANCH  12  13
TORSDOF 6
ENDMDL
MODEL 4
REMARK VINA RESULT:      -8.6      2.425     12.081
REMARK  Name = C:\Users\Docking\Desktop\test protocol\1iep_ligandH.pdb
REMARK  8 active torsions:
REMARK  status: ('A' for Active; 'I' for Inactive)
REMARK    1  A    between atoms: _5  and  _11
REMARK    2  A    between atoms: _19  and  _21
REMARK    3  A    between atoms: _22  and  _66
REMARK    4  A    between atoms: _27  and  _30
REMARK    5  A    between atoms: _32  and  _33
REMARK    6  A    between atoms: _38  and  _43
REMARK    7  A    between atoms: _43  and  _46
REMARK    8  A    between atoms: _53  and  _55
REMARK                            x       y       z     vdW  Elec       q    Type
REMARK                         _______ _______ _______ _____ _____    ______ ____
ROOT
ATOM     10  C   UNL     1      14.070  -8.879  -6.392  0.00  0.00    +0.038 A 
ATOM     11  C   UNL     1      14.387  -7.814  -7.274  0.00  0.00    +0.047 A 
ATOM     12  C   UNL     1      15.759  -7.564  -7.688  0.00  0.00    +0.035 A 
ATOM     32  C   UNL     1      16.783  -8.419  -7.187  0.00  0.00    +0.024 A 
ATOM     33  C   UNL     1      16.478  -9.505  -6.289  0.00  0.00    +0.007 A 
ATOM     34  C   UNL     1      15.128  -9.756  -5.874  0.00  0.00    -0.029 A 
ATOM     35  C   UNL     1      14.860 -10.930  -4.905  0.00  0.00    +0.045 C 
ENDROOT
BRANCH  10   9
ATOM      4  C   UNL     1      10.269  -7.977  -3.602  0.00  0.00    +0.077 A 
ATOM      5  C   UNL     1      11.011  -7.060  -2.787  0.00  0.00    +0.048 A 
ATOM      6  C   UNL     1      12.370  -6.853  -3.114  0.00  0.00    +0.116 A 
ATOM      7  N   UNL     1      12.934  -7.519  -4.180  0.00  0.00    -0.223 NA
ATOM      8  C   UNL     1      12.191  -8.399  -4.945  0.00  0.00    +0.220 A 
ATOM      9  N   UNL     1      12.736  -9.074  -6.027  0.00  0.00    -0.283 N 
ATOM     36  H   UNL     1      12.156  -9.720  -6.562  0.00  0.00    +0.155 HD
ATOM     37  N   UNL     1      10.892  -8.615  -4.652  0.00  0.00    -0.214 NA
BRANCH   4   3
ATOM      1  C   UNL     1       6.928  -9.272  -2.035  0.00  0.00    +0.020 A 
ATOM      2  C   UNL     1       8.335  -8.986  -2.197  0.00  0.00    +0.013 A 
ATOM      3  C   UNL     1       8.823  -8.298  -3.385  0.00  0.00    +0.019 A 
ATOM     38  C   UNL     1       7.854  -7.909  -4.399  0.00  0.00    +0.120 A 
ATOM     39  N   UNL     1       6.506  -8.199  -4.216  0.00  0.00    -0.263 NA
ATOM     40  C   UNL     1       6.024  -8.863  -3.078  0.00  0.00    +0.111 A 
ENDBRANCH   4   3
ENDBRANCH  10   9
BRANCH  12  13
ATOM     13  N   UNL     1      16.142  -6.493  -8.575  0.00  0.00    -0.281 N 
ATOM     14  C   UNL     1      16.464  -6.575  -9.920  0.00  0.00    +0.248 C 
ATOM     30  O   UNL     1      16.679  -7.620 -10.516  0.00  0.00    -0.270 OA
ATOM     31  H   UNL     1      16.180  -5.562  -8.161  0.00  0.00    +0.155 HD
BRANCH  14  15
ATOM     15  C   UNL     1      16.577  -5.314 -10.713  0.00  0.00    +0.037 A 
ATOM     16  C   UNL     1      17.680  -5.105 -11.654  0.00  0.00    +0.013 A 
ATOM     17  C   UNL     1      17.775  -3.872 -12.395  0.00  0.00    +0.005 A 
ATOM     18  C   UNL     1      16.762  -2.838 -12.198  0.00  0.00    -0.033 A 
ATOM     28  C   UNL     1      15.675  -3.074 -11.262  0.00  0.00    +0.005 A 
ATOM     29  C   UNL     1      15.580  -4.281 -10.533  0.00  0.00    +0.013 A 
BRANCH  18  19
ATOM     19  C   UNL     1      16.796  -1.483 -12.930  0.00  0.00    +0.119 C 
BRANCH  19  20
ATOM     20  N   UNL     1      15.678  -0.531 -12.657  0.00  0.00    -0.302 NA
ATOM     21  C   UNL     1      15.407   0.392 -13.849  0.00  0.00    +0.066 C 
ATOM     22  C   UNL     1      14.220   1.366 -13.555  0.00  0.00    -0.064 C 
ATOM     23  N   UNL     1      14.532   2.181 -12.299  0.00  0.00    +0.379 N 
ATOM     24  C   UNL     1      13.444   3.139 -12.053  0.00  0.00    -0.096 C 
ATOM     25  H   UNL     1      15.460   2.767 -12.498  0.00  0.00    -0.082 HD
ATOM     26  C   UNL     1      14.806   1.272 -11.110  0.00  0.00    -0.064 C 
ATOM     27  C   UNL     1      15.968   0.288 -11.423  0.00  0.00    +0.066 C 
ENDBRANCH  19  20
ENDBRANCH  18  19
ENDBRANCH  14  15
ENDBRANCH  12  13
TORSDOF 6
ENDMDL
MODEL 5
REMARK VINA RESULT:      -8.6      4.173      7.357
REMARK  Name = C:\Users\Docking\Desktop\test protocol\1iep_ligandH.pdb
REMARK  8 active torsions:
REMARK  status: ('A' for Active; 'I' for Inactive)
REMARK    1  A    between atoms: _5  and  _11
REMARK    2  A    between atoms: _19  and  _21
REMARK    3  A    between atoms: _22  and  _66
REMARK    4  A    between atoms: _27  and  _30
REMARK    5  A    between atoms: _32  and  _33
REMARK    6  A    between atoms: _38  and  _43
REMARK    7  A    between atoms: _43  and  _46
REMARK    8  A    between atoms: _53  and  _55
REMARK                            x       y       z     vdW  Elec       q    Type
REMARK                         _______ _______ _______ _____ _____    ______ ____
ROOT
ATOM     10  C   UNL     1      17.123  -7.530  -9.154  0.00  0.00    +0.038 A 
ATOM     11  C   UNL     1      16.089  -7.607  -8.186  0.00  0.00    +0.047 A 
ATOM     12  C   UNL     1      15.743  -8.870  -7.553  0.00  0.00    +0.035 A 
ATOM     32  C   UNL     1      16.473 -10.035  -7.928  0.00  0.00    +0.024 A 
ATOM     33  C   UNL     1      17.525  -9.976  -8.911  0.00  0.00    +0.007 A 
ATOM     34  C   UNL     1      17.869  -8.734  -9.541  0.00  0.00    -0.029 A 
ATOM     35  C   UNL     1      19.002  -8.730 -10.593  0.00  0.00    +0.045 C 
ENDROOT
BRANCH  10   9
ATOM      4  C   UNL     1      16.424  -4.141 -12.481  0.00  0.00    +0.077 A 
ATOM      5  C   UNL     1      15.413  -4.915 -13.142  0.00  0.00    +0.048 A 
ATOM      6  C   UNL     1      15.108  -6.184 -12.599  0.00  0.00    +0.116 A 
ATOM      7  N   UNL     1      15.770  -6.634 -11.477  0.00  0.00    -0.223 NA
ATOM      8  C   UNL     1      16.740  -5.862 -10.864  0.00  0.00    +0.220 A 
ATOM      9  N   UNL     1      17.413  -6.292  -9.731  0.00  0.00    -0.283 N 
ATOM     36  H   UNL     1      18.128  -5.696  -9.313  0.00  0.00    +0.155 HD
ATOM     37  N   UNL     1      17.051  -4.648 -11.365  0.00  0.00    -0.214 NA
BRANCH   4   3
ATOM      1  C   UNL     1      18.608  -1.115 -13.653  0.00  0.00    +0.020 A 
ATOM      2  C   UNL     1      18.244  -2.445 -13.219  0.00  0.00    +0.013 A 
ATOM      3  C   UNL     1      16.855  -2.781 -12.933  0.00  0.00    +0.019 A 
ATOM     38  C   UNL     1      15.850  -1.741 -13.098  0.00  0.00    +0.120 A 
ATOM     39  N   UNL     1      16.230  -0.470 -13.516  0.00  0.00    -0.263 NA
ATOM     40  C   UNL     1      17.564  -0.134 -13.793  0.00  0.00    +0.111 A 
ENDBRANCH   4   3
ENDBRANCH  10   9
BRANCH  12  13
ATOM     13  N   UNL     1      14.699  -9.010  -6.569  0.00  0.00    -0.281 N 
ATOM     14  C   UNL     1      14.718  -8.608  -5.243  0.00  0.00    +0.248 C 
ATOM     30  O   UNL     1      15.722  -8.257  -4.642  0.00  0.00    -0.270 OA
ATOM     31  H   UNL     1      13.841  -9.460  -6.889  0.00  0.00    +0.155 HD
BRANCH  14  15
ATOM     15  C   UNL     1      13.439  -8.610  -4.470  0.00  0.00    +0.037 A 
ATOM     16  C   UNL     1      12.740  -9.861  -4.160  0.00  0.00    +0.013 A 
ATOM     17  C   UNL     1      11.499  -9.833  -3.427  0.00  0.00    +0.005 A 
ATOM     18  C   UNL     1      10.950  -8.550  -2.997  0.00  0.00    -0.033 A 
ATOM     28  C   UNL     1      11.666  -7.325  -3.313  0.00  0.00    +0.005 A 
ATOM     29  C   UNL     1      12.882  -7.348  -4.032  0.00  0.00    +0.013 A 
BRANCH  18  19
ATOM     19  C   UNL     1       9.621  -8.424  -2.229  0.00  0.00    +0.119 C 
BRANCH  19  20
ATOM     20  N   UNL     1       8.366  -8.733  -2.978  0.00  0.00    -0.302 NA
ATOM     21  C   UNL     1       7.941  -7.577  -3.888  0.00  0.00    +0.066 C 
ATOM     22  C   UNL     1       6.640  -7.926  -4.681  0.00  0.00    -0.064 C 
ATOM     23  N   UNL     1       5.524  -8.277  -3.695  0.00  0.00    +0.379 N 
ATOM     24  C   UNL     1       4.283  -8.549  -4.436  0.00  0.00    -0.096 C 
ATOM     25  H   UNL     1       5.346  -7.383  -3.054  0.00  0.00    -0.082 HD
ATOM     26  C   UNL     1       5.939  -9.424  -2.784  0.00  0.00    -0.064 C 
ATOM     27  C   UNL     1       7.250  -9.079  -2.023  0.00  0.00    +0.066 C 
ENDBRANCH  19  20
ENDBRANCH  18  19
ENDBRANCH  14  15
ENDBRANCH  12  13
TORSDOF 6
ENDMDL
