MODEL 1
REMARK VINA RESULT:      -8.6      0.000      0.000
REMARK  Name = C:\Users\Docking\Desktop\test protocol\1iep_ligandH.pdb
REMARK  8 active torsions:
REMARK  status: ('A' for Active; 'I' for Inactive)
REMARK    1  A    between atoms: _5  and  _11
REMARK    2  A    between atoms: _19  and  _21
REMARK    3  A    between atoms: _22  and  _66
REMARK    4  A    between atoms: _27  and  _30
REMARK    5  A    between atoms: _32  and  _33
REMARK    6  A    between atoms: _38  and  _43
REMARK    7  A    between atoms: _43  and  _46
REMARK    8  A    between atoms: _53  and  _55
REMARK                            x       y       z     vdW  Elec       q    Type
REMARK                         _______ _______ _______ _____ _____    ______ ____
ROOT
ATOM     10  C   UNL     1       6.032   8.979 -11.637  0.00  0.00    +0.038 A 
ATOM     11  C   UNL     1       7.108   8.773 -12.538  0.00  0.00    +0.047 A 
ATOM     12  C   UNL     1       6.933   8.950 -13.971  0.00  0.00    +0.035 A 
ATOM     32  C   UNL     1       5.649   9.341 -14.452  0.00  0.00    +0.024 A 
ATOM     33  C   UNL     1       4.545   9.554 -13.550  0.00  0.00    +0.007 A 
ATOM     34  C   UNL     1       4.710   9.378 -12.136  0.00  0.00    -0.029 A 
ATOM     35  C   UNL     1       3.490   9.613 -11.216  0.00  0.00    +0.045 C 
ENDROOT
BRANCH  10   9
ATOM      4  C   UNL     1       7.511   6.344  -7.908  0.00  0.00    +0.077 A 
ATOM      5  C   UNL     1       7.840   5.230  -8.750  0.00  0.00    +0.048 A 
ATOM      6  C   UNL     1       7.608   5.373 -10.136  0.00  0.00    +0.116 A 
ATOM      7  N   UNL     1       7.084   6.548 -10.632  0.00  0.00    -0.223 NA
ATOM      8  C   UNL     1       6.776   7.602  -9.792  0.00  0.00    +0.220 A 
ATOM      9  N   UNL     1       6.256   8.795 -10.271  0.00  0.00    -0.283 N 
ATOM     36  H   UNL     1       6.035   9.546  -9.618  0.00  0.00    +0.155 HD
ATOM     37  N   UNL     1       6.987   7.489  -8.464  0.00  0.00    -0.214 NA
BRANCH   4   3
ATOM      1  C   UNL     1       8.976   5.739  -4.331  0.00  0.00    +0.020 A 
ATOM      2  C   UNL     1       8.837   5.707  -5.769  0.00  0.00    +0.013 A 
ATOM      3  C   UNL     1       7.702   6.347  -6.423  0.00  0.00    +0.019 A 
ATOM     38  C   UNL     1       6.718   7.016  -5.586  0.00  0.00    +0.120 A 
ATOM     39  N   UNL     1       6.876   7.030  -4.204  0.00  0.00    -0.263 NA
ATOM     40  C   UNL     1       7.964   6.416  -3.564  0.00  0.00    +0.111 A 
ENDBRANCH   4   3
ENDBRANCH  10   9
BRANCH  12  13
ATOM     13  N   UNL     1       7.986   8.748 -14.935  0.00  0.00    -0.281 N 
ATOM     14  C   UNL     1       8.180   7.658 -15.768  0.00  0.00    +0.248 C 
ATOM     30  O   UNL     1       7.594   6.591 -15.659  0.00  0.00    -0.270 OA
ATOM     31  H   UNL     1       8.672   9.499 -15.013  0.00  0.00    +0.155 HD
BRANCH  14  15
ATOM     15  C   UNL     1       9.180   7.763 -16.874  0.00  0.00    +0.037 A 
ATOM     16  C   UNL     1       9.124   6.873 -18.036  0.00  0.00    +0.013 A 
ATOM     17  C   UNL     1      10.112   6.985 -19.081  0.00  0.00    +0.005 A 
ATOM     18  C   UNL     1      11.163   7.993 -18.968  0.00  0.00    -0.033 A 
ATOM     28  C   UNL     1      11.191   8.867 -17.807  0.00  0.00    +0.005 A 
ATOM     29  C   UNL     1      10.226   8.760 -16.781  0.00  0.00    +0.013 A 
BRANCH  18  19
ATOM     19  C   UNL     1      12.269   8.169 -20.024  0.00  0.00    +0.119 C 
BRANCH  19  20
ATOM     20  N   UNL     1      13.648   7.736 -19.649  0.00  0.00    -0.302 NA
ATOM     21  C   UNL     1      14.722   8.636 -20.267  0.00  0.00    +0.066 C 
ATOM     22  C   UNL     1      16.157   8.182 -19.846  0.00  0.00    -0.064 C 
ATOM     23  N   UNL     1      16.369   6.724 -20.258  0.00  0.00    +0.379 N 
ATOM     24  C   UNL     1      17.738   6.311 -19.916  0.00  0.00    -0.096 C 
ATOM     25  H   UNL     1      16.266   6.668 -21.367  0.00  0.00    -0.082 HD
ATOM     26  C   UNL     1      15.304   5.822 -19.650  0.00  0.00    -0.064 C 
ATOM     27  C   UNL     1      13.881   6.300 -20.051  0.00  0.00    +0.066 C 
ENDBRANCH  19  20
ENDBRANCH  18  19
ENDBRANCH  14  15
ENDBRANCH  12  13
TORSDOF 6
ENDMDL
MODEL 2
REMARK VINA RESULT:      -8.4      6.897     13.172
REMARK  Name = C:\Users\Docking\Desktop\test protocol\1iep_ligandH.pdb
REMARK  8 active torsions:
REMARK  status: ('A' for Active; 'I' for Inactive)
REMARK    1  A    between atoms: _5  and  _11
REMARK    2  A    between atoms: _19  and  _21
REMARK    3  A    between atoms: _22  and  _66
REMARK    4  A    between atoms: _27  and  _30
REMARK    5  A    between atoms: _32  and  _33
REMARK    6  A    between atoms: _38  and  _43
REMARK    7  A    between atoms: _43  and  _46
REMARK    8  A    between atoms: _53  and  _55
REMARK                            x       y       z     vdW  Elec       q    Type
REMARK                         _______ _______ _______ _____ _____    ______ ____
ROOT
ATOM     10  C   UNL     1      13.624   0.436 -14.622  0.00  0.00    +0.038 A 
ATOM     11  C   UNL     1      12.765   1.001 -13.645  0.00  0.00    +0.047 A 
ATOM     12  C   UNL     1      11.596   1.776 -14.029  0.00  0.00    +0.035 A 
ATOM     32  C   UNL     1      11.328   1.952 -15.418  0.00  0.00    +0.024 A 
ATOM     33  C   UNL     1      12.191   1.385 -16.424  0.00  0.00    +0.007 A 
ATOM     34  C   UNL     1      13.348   0.622 -16.052  0.00  0.00    -0.029 A 
ATOM     35  C   UNL     1      14.241   0.043 -17.173  0.00  0.00    +0.045 C 
ENDROOT
BRANCH  10   9
ATOM      4  C   UNL     1      18.269   0.069 -13.470  0.00  0.00    +0.077 A 
ATOM      5  C   UNL     1      18.512   1.452 -13.765  0.00  0.00    +0.048 A 
ATOM      6  C   UNL     1      17.417   2.221 -14.218  0.00  0.00    +0.116 A 
ATOM      7  N   UNL     1      16.175   1.640 -14.360  0.00  0.00    -0.223 NA
ATOM      8  C   UNL     1      15.975   0.304 -14.068  0.00  0.00    +0.220 A 
ATOM      9  N   UNL     1      14.733  -0.299 -14.197  0.00  0.00    -0.283 N 
ATOM     36  H   UNL     1      14.629  -1.289 -13.979  0.00  0.00    +0.155 HD
ATOM     37  N   UNL     1      17.006  -0.453 -13.636  0.00  0.00    -0.214 NA
BRANCH   4   3
ATOM      1  C   UNL     1      21.626  -1.379 -12.079  0.00  0.00    +0.020 A 
ATOM      2  C   UNL     1      20.643  -0.428 -12.544  0.00  0.00    +0.013 A 
ATOM      3  C   UNL     1      19.324  -0.873 -12.979  0.00  0.00    +0.019 A 
ATOM     38  C   UNL     1      19.030  -2.297 -12.929  0.00  0.00    +0.120 A 
ATOM     39  N   UNL     1      19.997  -3.189 -12.477  0.00  0.00    -0.263 NA
ATOM     40  C   UNL     1      21.270  -2.773 -12.058  0.00  0.00    +0.111 A 
ENDBRANCH   4   3
ENDBRANCH  10   9
BRANCH  12  13
ATOM     13  N   UNL     1      10.692   2.380 -13.082  0.00  0.00    -0.281 N 
ATOM     14  C   UNL     1      11.009   3.068 -11.922  0.00  0.00    +0.248 C 
ATOM     30  O   UNL     1      12.119   3.084 -11.409  0.00  0.00    -0.270 OA
ATOM     31  H   UNL     1       9.698   2.290 -13.292  0.00  0.00    +0.155 HD
BRANCH  14  15
ATOM     15  C   UNL     1       9.936   3.839 -11.223  0.00  0.00    +0.037 A 
ATOM     16  C   UNL     1      10.095   5.265 -10.926  0.00  0.00    +0.013 A 
ATOM     17  C   UNL     1       9.052   5.981 -10.236  0.00  0.00    +0.005 A 
ATOM     18  C   UNL     1       7.838   5.271  -9.839  0.00  0.00    -0.033 A 
ATOM     28  C   UNL     1       7.705   3.857 -10.151  0.00  0.00    +0.005 A 
ATOM     29  C   UNL     1       8.726   3.152 -10.826  0.00  0.00    +0.013 A 
BRANCH  18  19
ATOM     19  C   UNL     1       6.683   5.949  -9.080  0.00  0.00    +0.119 C 
BRANCH  19  20
ATOM     20  N   UNL     1       6.982   6.490  -7.720  0.00  0.00    -0.302 NA
ATOM     21  C   UNL     1       7.871   5.544  -6.909  0.00  0.00    +0.066 C 
ATOM     22  C   UNL     1       8.193   6.135  -5.498  0.00  0.00    -0.064 C 
ATOM     23  N   UNL     1       6.885   6.418  -4.756  0.00  0.00    +0.379 N 
ATOM     24  C   UNL     1       7.184   6.920  -3.407  0.00  0.00    -0.096 C 
ATOM     25  H   UNL     1       6.343   5.450  -4.645  0.00  0.00    -0.082 HD
ATOM     26  C   UNL     1       5.993   7.356  -5.558  0.00  0.00    -0.064 C 
ATOM     27  C   UNL     1       5.704   6.773  -6.969  0.00  0.00    +0.066 C 
ENDBRANCH  19  20
ENDBRANCH  18  19
ENDBRANCH  14  15
ENDBRANCH  12  13
TORSDOF 6
ENDMDL
MODEL 3
REMARK VINA RESULT:      -7.9      4.458      7.932
REMARK  Name = C:\Users\Docking\Desktop\test protocol\1iep_ligandH.pdb
REMARK  8 active torsions:
REMARK  status: ('A' for Active; 'I' for Inactive)
REMARK    1  A    between atoms: _5  and  _11
REMARK    2  A    between atoms: _19  and  _21
REMARK    3  A    between atoms: _22  and  _66
REMARK    4  A    between atoms: _27  and  _30
REMARK    5  A    between atoms: _32  and  _33
REMARK    6  A    between atoms: _38  and  _43
REMARK    7  A    between atoms: _43  and  _46
REMARK    8  A    between atoms: _53  and  _55
REMARK                            x       y       z     vdW  Elec       q    Type
REMARK                         _______ _______ _______ _____ _____    ______ ____
ROOT
ATOM     10  C   UNL     1       5.460   6.313  -5.266  0.00  0.00    +0.038 A 
ATOM     11  C   UNL     1       5.763   6.435  -6.646  0.00  0.00    +0.047 A 
ATOM     12  C   UNL     1       7.120   6.703  -7.097  0.00  0.00    +0.035 A 
ATOM     32  C   UNL     1       8.144   6.838  -6.116  0.00  0.00    +0.024 A 
ATOM     33  C   UNL     1       7.854   6.718  -4.709  0.00  0.00    +0.007 A 
ATOM     34  C   UNL     1       6.517   6.457  -4.257  0.00  0.00    -0.029 A 
ATOM     35  C   UNL     1       6.262   6.345  -2.736  0.00  0.00    +0.045 C 
ENDROOT
BRANCH  10   9
ATOM      4  C   UNL     1       1.023   7.752  -4.137  0.00  0.00    +0.077 A 
ATOM      5  C   UNL     1       1.370   9.136  -4.286  0.00  0.00    +0.048 A 
ATOM      6  C   UNL     1       2.703   9.435  -4.647  0.00  0.00    +0.116 A 
ATOM      7  N   UNL     1       3.612   8.418  -4.843  0.00  0.00    -0.223 NA
ATOM      8  C   UNL     1       3.245   7.094  -4.689  0.00  0.00    +0.220 A 
ATOM      9  N   UNL     1       4.140   6.055  -4.888  0.00  0.00    -0.283 N 
ATOM     36  H   UNL     1       3.832   5.092  -4.757  0.00  0.00    +0.155 HD
ATOM     37  N   UNL     1       1.978   6.782  -4.343  0.00  0.00    -0.214 NA
BRANCH   4   3
ATOM      1  C   UNL     1      -2.863   7.365  -3.910  0.00  0.00    +0.020 A 
ATOM      2  C   UNL     1      -1.565   7.863  -4.304  0.00  0.00    +0.013 A 
ATOM      3  C   UNL     1      -0.346   7.276  -3.762  0.00  0.00    +0.019 A 
ATOM     38  C   UNL     1      -0.476   6.178  -2.816  0.00  0.00    +0.120 A 
ATOM     39  N   UNL     1      -1.740   5.721  -2.453  0.00  0.00    -0.263 NA
ATOM     40  C   UNL     1      -2.920   6.279  -2.967  0.00  0.00    +0.111 A 
ENDBRANCH   4   3
ENDBRANCH  10   9
BRANCH  12  13
ATOM     13  N   UNL     1       7.486   6.844  -8.485  0.00  0.00    -0.281 N 
ATOM     14  C   UNL     1       7.801   5.844  -9.389  0.00  0.00    +0.248 C 
ATOM     30  O   UNL     1       8.025   4.682  -9.084  0.00  0.00    -0.270 OA
ATOM     31  H   UNL     1       7.517   7.799  -8.844  0.00  0.00    +0.155 HD
BRANCH  14  15
ATOM     15  C   UNL     1       7.896   6.186 -10.841  0.00  0.00    +0.037 A 
ATOM     16  C   UNL     1       6.984   7.155 -11.454  0.00  0.00    +0.013 A 
ATOM     17  C   UNL     1       7.086   7.454 -12.861  0.00  0.00    +0.005 A 
ATOM     18  C   UNL     1       8.106   6.783 -13.663  0.00  0.00    -0.033 A 
ATOM     28  C   UNL     1       9.001   5.830 -13.028  0.00  0.00    +0.005 A 
ATOM     29  C   UNL     1       8.903   5.533 -11.650  0.00  0.00    +0.013 A 
BRANCH  18  19
ATOM     19  C   UNL     1       8.274   7.025 -15.175  0.00  0.00    +0.119 C 
BRANCH  19  20
ATOM     20  N   UNL     1       8.788   8.361 -15.601  0.00  0.00    -0.302 NA
ATOM     21  C   UNL     1       7.654   9.355 -15.867  0.00  0.00    +0.066 C 
ATOM     22  C   UNL     1       8.210  10.754 -16.289  0.00  0.00    -0.064 C 
ATOM     23  N   UNL     1       9.093  10.595 -17.528  0.00  0.00    +0.379 N 
ATOM     24  C   UNL     1       9.570  11.916 -17.962  0.00  0.00    -0.096 C 
ATOM     25  H   UNL     1       8.457  10.180 -18.345  0.00  0.00    -0.082 HD
ATOM     26  C   UNL     1      10.221   9.607 -17.274  0.00  0.00    -0.064 C 
ATOM     27  C   UNL     1       9.659   8.229 -16.826  0.00  0.00    +0.066 C 
ENDBRANCH  19  20
ENDBRANCH  18  19
ENDBRANCH  14  15
ENDBRANCH  12  13
TORSDOF 6
ENDMDL
MODEL 4
REMARK VINA RESULT:      -7.9      5.217      6.109
REMARK  Name = C:\Users\Docking\Desktop\test protocol\1iep_ligandH.pdb
REMARK  8 active torsions:
REMARK  status: ('A' for Active; 'I' for Inactive)
REMARK    1  A    between atoms: _5  and  _11
REMARK    2  A    between atoms: _19  and  _21
REMARK    3  A    between atoms: _22  and  _66
REMARK    4  A    between atoms: _27  and  _30
REMARK    5  A    between atoms: _32  and  _33
REMARK    6  A    between atoms: _38  and  _43
REMARK    7  A    between atoms: _43  and  _46
REMARK    8  A    between atoms: _53  and  _55
REMARK                            x       y       z     vdW  Elec       q    Type
REMARK                         _______ _______ _______ _____ _____    ______ ____
ROOT
ATOM     10  C   UNL     1       7.862   6.861 -11.189  0.00  0.00    +0.038 A 
ATOM     11  C   UNL     1       8.855   5.888 -11.470  0.00  0.00    +0.047 A 
ATOM     12  C   UNL     1       9.223   5.561 -12.838  0.00  0.00    +0.035 A 
ATOM     32  C   UNL     1       8.560   6.246 -13.898  0.00  0.00    +0.024 A 
ATOM     33  C   UNL     1       7.547   7.237 -13.631  0.00  0.00    +0.007 A 
ATOM     34  C   UNL     1       7.179   7.562 -12.283  0.00  0.00    -0.029 A 
ATOM     35  C   UNL     1       6.082   8.628 -12.056  0.00  0.00    +0.045 C 
ENDROOT
BRANCH  10   9
ATOM      4  C   UNL     1       7.687   5.656  -6.547  0.00  0.00    +0.077 A 
ATOM      5  C   UNL     1       8.241   4.358  -6.802  0.00  0.00    +0.048 A 
ATOM      6  C   UNL     1       8.551   4.037  -8.142  0.00  0.00    +0.116 A 
ATOM      7  N   UNL     1       8.320   4.954  -9.145  0.00  0.00    -0.223 NA
ATOM      8  C   UNL     1       7.782   6.196  -8.865  0.00  0.00    +0.220 A 
ATOM      9  N   UNL     1       7.549   7.137  -9.856  0.00  0.00    -0.283 N 
ATOM     36  H   UNL     1       7.144   8.040  -9.610  0.00  0.00    +0.155 HD
ATOM     37  N   UNL     1       7.476   6.527  -7.593  0.00  0.00    -0.214 NA
BRANCH   4   3
ATOM      1  C   UNL     1       5.622   6.670  -3.383  0.00  0.00    +0.020 A 
ATOM      2  C   UNL     1       5.932   6.191  -4.710  0.00  0.00    +0.013 A 
ATOM      3  C   UNL     1       7.310   6.144  -5.182  0.00  0.00    +0.019 A 
ATOM     38  C   UNL     1       8.360   6.593  -4.280  0.00  0.00    +0.120 A 
ATOM     39  N   UNL     1       8.031   7.051  -3.008  0.00  0.00    -0.263 NA
ATOM     40  C   UNL     1       6.708   7.102  -2.543  0.00  0.00    +0.111 A 
ENDBRANCH   4   3
ENDBRANCH  10   9
BRANCH  12  13
ATOM     13  N   UNL     1      10.218   4.576 -13.184  0.00  0.00    -0.281 N 
ATOM     14  C   UNL     1      10.359   3.294 -12.679  0.00  0.00    +0.248 C 
ATOM     30  O   UNL     1       9.776   2.873 -11.691  0.00  0.00    -0.270 OA
ATOM     31  H   UNL     1      10.901   4.859 -13.887  0.00  0.00    +0.155 HD
BRANCH  14  15
ATOM     15  C   UNL     1      11.294   2.348 -13.360  0.00  0.00    +0.037 A 
ATOM     16  C   UNL     1      11.332   2.238 -14.821  0.00  0.00    +0.013 A 
ATOM     17  C   UNL     1      12.231   1.305 -15.452  0.00  0.00    +0.005 A 
ATOM     18  C   UNL     1      13.102   0.476 -14.622  0.00  0.00    -0.033 A 
ATOM     28  C   UNL     1      13.048   0.610 -13.176  0.00  0.00    +0.005 A 
ATOM     29  C   UNL     1      12.167   1.522 -12.554  0.00  0.00    +0.013 A 
BRANCH  18  19
ATOM     19  C   UNL     1      14.078  -0.561 -15.210  0.00  0.00    +0.119 C 
BRANCH  19  20
ATOM     20  N   UNL     1      15.524  -0.408 -14.871  0.00  0.00    -0.302 NA
ATOM     21  C   UNL     1      15.892  -1.138 -13.576  0.00  0.00    +0.066 C 
ATOM     22  C   UNL     1      17.413  -0.985 -13.249  0.00  0.00    -0.064 C 
ATOM     23  N   UNL     1      17.765   0.500 -13.153  0.00  0.00    +0.379 N 
ATOM     24  C   UNL     1      19.182   0.646 -12.788  0.00  0.00    -0.096 C 
ATOM     25  H   UNL     1      17.156   0.939 -12.328  0.00  0.00    -0.082 HD
ATOM     26  C   UNL     1      17.400   1.234 -14.435  0.00  0.00    -0.064 C 
ATOM     27  C   UNL     1      15.892   1.052 -14.767  0.00  0.00    +0.066 C 
ENDBRANCH  19  20
ENDBRANCH  18  19
ENDBRANCH  14  15
ENDBRANCH  12  13
TORSDOF 6
ENDMDL
MODEL 5
REMARK VINA RESULT:      -7.8     18.408     21.847
REMARK  Name = C:\Users\Docking\Desktop\test protocol\1iep_ligandH.pdb
REMARK  8 active torsions:
REMARK  status: ('A' for Active; 'I' for Inactive)
REMARK    1  A    between atoms: _5  and  _11
REMARK    2  A    between atoms: _19  and  _21
REMARK    3  A    between atoms: _22  and  _66
REMARK    4  A    between atoms: _27  and  _30
REMARK    5  A    between atoms: _32  and  _33
REMARK    6  A    between atoms: _38  and  _43
REMARK    7  A    between atoms: _43  and  _46
REMARK    8  A    between atoms: _53  and  _55
REMARK                            x       y       z     vdW  Elec       q    Type
REMARK                         _______ _______ _______ _____ _____    ______ ____
ROOT
ATOM     10  C   UNL     1      24.861  -1.620  -1.186  0.00  0.00    +0.038 A 
ATOM     11  C   UNL     1      24.836  -0.489  -2.041  0.00  0.00    +0.047 A 
ATOM     12  C   UNL     1      24.340   0.797  -1.574  0.00  0.00    +0.035 A 
ATOM     32  C   UNL     1      23.880   0.895  -0.228  0.00  0.00    +0.024 A 
ATOM     33  C   UNL     1      23.898  -0.245   0.654  0.00  0.00    +0.007 A 
ATOM     34  C   UNL     1      24.384  -1.516   0.198  0.00  0.00    -0.029 A 
ATOM     35  C   UNL     1      24.374  -2.706   1.186  0.00  0.00    +0.045 C 
ENDROOT
BRANCH  10   9
ATOM      4  C   UNL     1      28.437  -4.685  -2.112  0.00  0.00    +0.077 A 
ATOM      5  C   UNL     1      29.422  -3.790  -1.577  0.00  0.00    +0.048 A 
ATOM      6  C   UNL     1      28.968  -2.547  -1.080  0.00  0.00    +0.116 A 
ATOM      7  N   UNL     1      27.627  -2.234  -1.120  0.00  0.00    -0.223 NA
ATOM      8  C   UNL     1      26.703  -3.120  -1.644  0.00  0.00    +0.220 A 
ATOM      9  N   UNL     1      25.348  -2.829  -1.686  0.00  0.00    -0.283 N 
ATOM     36  H   UNL     1      24.700  -3.506  -2.088  0.00  0.00    +0.155 HD
ATOM     37  N   UNL     1      27.111  -4.312  -2.126  0.00  0.00    -0.214 NA
BRANCH   4   3
ATOM      1  C   UNL     1      30.382  -7.802  -3.455  0.00  0.00    +0.020 A 
ATOM      2  C   UNL     1      30.124  -6.487  -2.914  0.00  0.00    +0.013 A 
ATOM      3  C   UNL     1      28.760  -6.036  -2.671  0.00  0.00    +0.019 A 
ATOM     38  C   UNL     1      27.670  -6.947  -2.988  0.00  0.00    +0.120 A 
ATOM     39  N   UNL     1      27.948  -8.206  -3.510  0.00  0.00    -0.263 NA
ATOM     40  C   UNL     1      29.257  -8.651  -3.750  0.00  0.00    +0.111 A 
ENDBRANCH   4   3
ENDBRANCH  10   9
BRANCH  12  13
ATOM     13  N   UNL     1      24.282   1.978  -2.399  0.00  0.00    -0.281 N 
ATOM     14  C   UNL     1      23.988   2.059  -3.750  0.00  0.00    +0.248 C 
ATOM     30  O   UNL     1      23.939   1.100  -4.506  0.00  0.00    -0.270 OA
ATOM     31  H   UNL     1      24.482   2.861  -1.930  0.00  0.00    +0.155 HD
BRANCH  14  15
ATOM     15  C   UNL     1      23.725   3.402  -4.352  0.00  0.00    +0.037 A 
ATOM     16  C   UNL     1      24.325   3.792  -5.631  0.00  0.00    +0.013 A 
ATOM     17  C   UNL     1      24.068   5.099  -6.181  0.00  0.00    +0.005 A 
ATOM     18  C   UNL     1      23.205   6.026  -5.452  0.00  0.00    -0.033 A 
ATOM     28  C   UNL     1      22.618   5.611  -4.189  0.00  0.00    +0.005 A 
ATOM     29  C   UNL     1      22.869   4.331  -3.646  0.00  0.00    +0.013 A 
BRANCH  18  19
ATOM     19  C   UNL     1      22.893   7.449  -5.954  0.00  0.00    +0.119 C 
BRANCH  19  20
ATOM     20  N   UNL     1      21.486   7.930  -5.814  0.00  0.00    -0.302 NA
ATOM     21  C   UNL     1      20.812   8.135  -7.174  0.00  0.00    +0.066 C 
ATOM     22  C   UNL     1      19.333   8.616  -7.009  0.00  0.00    -0.064 C 
ATOM     23  N   UNL     1      19.310   9.909  -6.192  0.00  0.00    +0.379 N 
ATOM     24  C   UNL     1      17.926  10.396  -6.084  0.00  0.00    -0.096 C 
ATOM     25  H   UNL     1      19.895  10.674  -6.753  0.00  0.00    -0.082 HD
ATOM     26  C   UNL     1      19.981   9.715  -4.840  0.00  0.00    -0.064 C 
ATOM     27  C   UNL     1      21.439   9.208  -5.014  0.00  0.00    +0.066 C 
ENDBRANCH  19  20
ENDBRANCH  18  19
ENDBRANCH  14  15
ENDBRANCH  12  13
TORSDOF 6
ENDMDL
