MODEL 1
REMARK VINA RESULT:      -7.7      0.000      0.000
REMARK  Name = C:\Users\Docking\Desktop\test protocol\1iep_ligandH.pdb
REMARK  8 active torsions:
REMARK  status: ('A' for Active; 'I' for Inactive)
REMARK    1  A    between atoms: _5  and  _11
REMARK    2  A    between atoms: _19  and  _21
REMARK    3  A    between atoms: _22  and  _66
REMARK    4  A    between atoms: _27  and  _30
REMARK    5  A    between atoms: _32  and  _33
REMARK    6  A    between atoms: _38  and  _43
REMARK    7  A    between atoms: _43  and  _46
REMARK    8  A    between atoms: _53  and  _55
REMARK                            x       y       z     vdW  Elec       q    Type
REMARK                         _______ _______ _______ _____ _____    ______ ____
ROOT
ATOM     10  C   UNL     1      26.646  18.621   5.539  0.00  0.00    +0.038 A 
ATOM     11  C   UNL     1      25.360  19.124   5.215  0.00  0.00    +0.047 A 
ATOM     12  C   UNL     1      24.739  20.172   6.009  0.00  0.00    +0.035 A 
ATOM     32  C   UNL     1      25.458  20.689   7.126  0.00  0.00    +0.024 A 
ATOM     33  C   UNL     1      26.766  20.189   7.471  0.00  0.00    +0.007 A 
ATOM     34  C   UNL     1      27.382  19.153   6.692  0.00  0.00    -0.029 A 
ATOM     35  C   UNL     1      28.783  18.651   7.112  0.00  0.00    +0.045 C 
ENDROOT
BRANCH  10   9
ATOM      4  C   UNL     1      26.385  14.387   3.295  0.00  0.00    +0.077 A 
ATOM      5  C   UNL     1      25.053  14.149   3.772  0.00  0.00    +0.048 A 
ATOM      6  C   UNL     1      24.474  15.138   4.599  0.00  0.00    +0.116 A 
ATOM      7  N   UNL     1      25.183  16.276   4.917  0.00  0.00    -0.223 NA
ATOM      8  C   UNL     1      26.466  16.473   4.441  0.00  0.00    +0.220 A 
ATOM      9  N   UNL     1      27.194  17.614   4.742  0.00  0.00    -0.283 N 
ATOM     36  H   UNL     1      28.141  17.719   4.378  0.00  0.00    +0.155 HD
ATOM     37  N   UNL     1      27.042  15.543   3.651  0.00  0.00    -0.214 NA
BRANCH   4   3
ATOM      1  C   UNL     1      27.711  11.118   1.605  0.00  0.00    +0.020 A 
ATOM      2  C   UNL     1      26.967  11.991   2.483  0.00  0.00    +0.013 A 
ATOM      3  C   UNL     1      27.131  13.437   2.410  0.00  0.00    +0.019 A 
ATOM     38  C   UNL     1      28.062  13.972   1.428  0.00  0.00    +0.120 A 
ATOM     39  N   UNL     1      28.766  13.107   0.596  0.00  0.00    -0.263 NA
ATOM     40  C   UNL     1      28.618  11.714   0.659  0.00  0.00    +0.111 A 
ENDBRANCH   4   3
ENDBRANCH  10   9
BRANCH  12  13
ATOM     13  N   UNL     1      23.432  20.716   5.733  0.00  0.00    -0.281 N 
ATOM     14  C   UNL     1      22.209  20.071   5.809  0.00  0.00    +0.248 C 
ATOM     30  O   UNL     1      22.070  18.862   5.920  0.00  0.00    -0.270 OA
ATOM     31  H   UNL     1      23.407  21.695   5.447  0.00  0.00    +0.155 HD
BRANCH  14  15
ATOM     15  C   UNL     1      20.958  20.886   5.736  0.00  0.00    +0.037 A 
ATOM     16  C   UNL     1      21.004  22.351   5.731  0.00  0.00    +0.013 A 
ATOM     17  C   UNL     1      19.781  23.113   5.677  0.00  0.00    +0.005 A 
ATOM     18  C   UNL     1      18.501  22.410   5.626  0.00  0.00    -0.033 A 
ATOM     28  C   UNL     1      18.485  20.957   5.626  0.00  0.00    +0.005 A 
ATOM     29  C   UNL     1      19.681  20.207   5.680  0.00  0.00    +0.013 A 
BRANCH  18  19
ATOM     19  C   UNL     1      17.147  23.142   5.588  0.00  0.00    +0.119 C 
BRANCH  19  20
ATOM     20  N   UNL     1      16.535  23.517   6.897  0.00  0.00    -0.302 NA
ATOM     21  C   UNL     1      15.006  23.447   6.858  0.00  0.00    +0.066 C 
ATOM     22  C   UNL     1      14.383  23.820   8.242  0.00  0.00    -0.064 C 
ATOM     23  N   UNL     1      14.851  25.219   8.649  0.00  0.00    +0.379 N 
ATOM     24  C   UNL     1      14.221  25.596   9.923  0.00  0.00    -0.096 C 
ATOM     25  H   UNL     1      14.495  25.933   7.871  0.00  0.00    -0.082 HD
ATOM     26  C   UNL     1      16.371  25.298   8.688  0.00  0.00    -0.064 C 
ATOM     27  C   UNL     1      16.980  24.896   7.316  0.00  0.00    +0.066 C 
ENDBRANCH  19  20
ENDBRANCH  18  19
ENDBRANCH  14  15
ENDBRANCH  12  13
TORSDOF 6
ENDMDL
MODEL 2
REMARK VINA RESULT:      -7.4     14.564     16.288
REMARK  Name = C:\Users\Docking\Desktop\test protocol\1iep_ligandH.pdb
REMARK  8 active torsions:
REMARK  status: ('A' for Active; 'I' for Inactive)
REMARK    1  A    between atoms: _5  and  _11
REMARK    2  A    between atoms: _19  and  _21
REMARK    3  A    between atoms: _22  and  _66
REMARK    4  A    between atoms: _27  and  _30
REMARK    5  A    between atoms: _32  and  _33
REMARK    6  A    between atoms: _38  and  _43
REMARK    7  A    between atoms: _43  and  _46
REMARK    8  A    between atoms: _53  and  _55
REMARK                            x       y       z     vdW  Elec       q    Type
REMARK                         _______ _______ _______ _____ _____    ______ ____
ROOT
ATOM     10  C   UNL     1      34.892  25.850  11.573  0.00  0.00    +0.038 A 
ATOM     11  C   UNL     1      34.368  24.934  12.520  0.00  0.00    +0.047 A 
ATOM     12  C   UNL     1      33.328  25.332  13.456  0.00  0.00    +0.035 A 
ATOM     32  C   UNL     1      32.842  26.670  13.397  0.00  0.00    +0.024 A 
ATOM     33  C   UNL     1      33.364  27.615  12.440  0.00  0.00    +0.007 A 
ATOM     34  C   UNL     1      34.392  27.229  11.517  0.00  0.00    -0.029 A 
ATOM     35  C   UNL     1      34.919  28.285  10.518  0.00  0.00    +0.045 C 
ENDROOT
BRANCH  10   9
ATOM      4  C   UNL     1      39.492  25.039  10.466  0.00  0.00    +0.077 A 
ATOM      5  C   UNL     1      39.947  25.551  11.727  0.00  0.00    +0.048 A 
ATOM      6  C   UNL     1      38.966  26.021  12.629  0.00  0.00    +0.116 A 
ATOM      7  N   UNL     1      37.632  25.975  12.285  0.00  0.00    -0.223 NA
ATOM      8  C   UNL     1      37.227  25.476  11.061  0.00  0.00    +0.220 A 
ATOM      9  N   UNL     1      35.890  25.414  10.698  0.00  0.00    -0.283 N 
ATOM     36  H   UNL     1      35.633  25.046   9.783  0.00  0.00    +0.155 HD
ATOM     37  N   UNL     1      38.145  25.024  10.181  0.00  0.00    -0.214 NA
BRANCH   4   3
ATOM      1  C   UNL     1      42.698  23.989   8.486  0.00  0.00    +0.020 A 
ATOM      2  C   UNL     1      41.859  24.519   9.536  0.00  0.00    +0.013 A 
ATOM      3  C   UNL     1      40.407  24.504   9.409  0.00  0.00    +0.019 A 
ATOM     38  C   UNL     1      39.831  23.941   8.197  0.00  0.00    +0.120 A 
ATOM     39  N   UNL     1      40.664  23.439   7.202  0.00  0.00    -0.263 NA
ATOM     40  C   UNL     1      42.062  23.450   7.312  0.00  0.00    +0.111 A 
ENDBRANCH   4   3
ENDBRANCH  10   9
BRANCH  12  13
ATOM     13  N   UNL     1      32.763  24.448  14.445  0.00  0.00    -0.281 N 
ATOM     14  C   UNL     1      32.928  24.492  15.820  0.00  0.00    +0.248 C 
ATOM     30  O   UNL     1      33.763  25.175  16.394  0.00  0.00    -0.270 OA
ATOM     31  H   UNL     1      32.170  23.698  14.089  0.00  0.00    +0.155 HD
BRANCH  14  15
ATOM     15  C   UNL     1      32.047  23.645  16.680  0.00  0.00    +0.037 A 
ATOM     16  C   UNL     1      31.397  22.443  16.151  0.00  0.00    +0.013 A 
ATOM     17  C   UNL     1      30.538  21.653  16.998  0.00  0.00    +0.005 A 
ATOM     18  C   UNL     1      30.327  22.063  18.385  0.00  0.00    -0.033 A 
ATOM     28  C   UNL     1      30.988  23.256  18.885  0.00  0.00    +0.005 A 
ATOM     29  C   UNL     1      31.829  24.034  18.058  0.00  0.00    +0.013 A 
BRANCH  18  19
ATOM     19  C   UNL     1      29.411  21.292  19.354  0.00  0.00    +0.119 C 
BRANCH  19  20
ATOM     20  N   UNL     1      28.052  20.917  18.859  0.00  0.00    -0.302 NA
ATOM     21  C   UNL     1      26.940  21.554  19.696  0.00  0.00    +0.066 C 
ATOM     22  C   UNL     1      25.526  21.170  19.151  0.00  0.00    -0.064 C 
ATOM     23  N   UNL     1      25.386  19.647  19.133  0.00  0.00    +0.379 N 
ATOM     24  C   UNL     1      24.036  19.284  18.675  0.00  0.00    -0.096 C 
ATOM     25  H   UNL     1      25.496  19.285  20.181  0.00  0.00    -0.082 HD
ATOM     26  C   UNL     1      26.489  19.006  18.304  0.00  0.00    -0.064 C 
ATOM     27  C   UNL     1      27.891  19.417  18.837  0.00  0.00    +0.066 C 
ENDBRANCH  19  20
ENDBRANCH  18  19
ENDBRANCH  14  15
ENDBRANCH  12  13
TORSDOF 6
ENDMDL
MODEL 3
REMARK VINA RESULT:      -7.4      1.583      2.003
REMARK  Name = C:\Users\Docking\Desktop\test protocol\1iep_ligandH.pdb
REMARK  8 active torsions:
REMARK  status: ('A' for Active; 'I' for Inactive)
REMARK    1  A    between atoms: _5  and  _11
REMARK    2  A    between atoms: _19  and  _21
REMARK    3  A    between atoms: _22  and  _66
REMARK    4  A    between atoms: _27  and  _30
REMARK    5  A    between atoms: _32  and  _33
REMARK    6  A    between atoms: _38  and  _43
REMARK    7  A    between atoms: _43  and  _46
REMARK    8  A    between atoms: _53  and  _55
REMARK                            x       y       z     vdW  Elec       q    Type
REMARK                         _______ _______ _______ _____ _____    ______ ____
ROOT
ATOM     10  C   UNL     1      26.322  18.484   5.500  0.00  0.00    +0.038 A 
ATOM     11  C   UNL     1      24.922  18.710   5.510  0.00  0.00    +0.047 A 
ATOM     12  C   UNL     1      24.334  19.753   6.334  0.00  0.00    +0.035 A 
ATOM     32  C   UNL     1      25.202  20.550   7.136  0.00  0.00    +0.024 A 
ATOM     33  C   UNL     1      26.627  20.334   7.140  0.00  0.00    +0.007 A 
ATOM     34  C   UNL     1      27.213  19.304   6.330  0.00  0.00    -0.029 A 
ATOM     35  C   UNL     1      28.747  19.112   6.379  0.00  0.00    +0.045 C 
ENDROOT
BRANCH  10   9
ATOM      4  C   UNL     1      25.935  14.256   3.262  0.00  0.00    +0.077 A 
ATOM      5  C   UNL     1      24.612  14.039   3.773  0.00  0.00    +0.048 A 
ATOM      6  C   UNL     1      24.070  15.037   4.614  0.00  0.00    +0.116 A 
ATOM      7  N   UNL     1      24.806  16.163   4.915  0.00  0.00    -0.223 NA
ATOM      8  C   UNL     1      26.079  16.340   4.407  0.00  0.00    +0.220 A 
ATOM      9  N   UNL     1      26.834  17.468   4.689  0.00  0.00    -0.283 N 
ATOM     36  H   UNL     1      27.772  17.557   4.301  0.00  0.00    +0.155 HD
ATOM     37  N   UNL     1      26.620  15.401   3.602  0.00  0.00    -0.214 NA
BRANCH   4   3
ATOM      1  C   UNL     1      26.765  11.158   1.023  0.00  0.00    +0.020 A 
ATOM      2  C   UNL     1      26.039  12.051   1.896  0.00  0.00    +0.013 A 
ATOM      3  C   UNL     1      26.642  13.295   2.358  0.00  0.00    +0.019 A 
ATOM     38  C   UNL     1      27.992  13.608   1.914  0.00  0.00    +0.120 A 
ATOM     39  N   UNL     1      28.668  12.728   1.074  0.00  0.00    -0.263 NA
ATOM     40  C   UNL     1      28.098  11.527   0.625  0.00  0.00    +0.111 A 
ENDBRANCH   4   3
ENDBRANCH  10   9
BRANCH  12  13
ATOM     13  N   UNL     1      22.919  20.024   6.391  0.00  0.00    -0.281 N 
ATOM     14  C   UNL     1      22.204  20.972   5.677  0.00  0.00    +0.248 C 
ATOM     30  O   UNL     1      22.710  21.880   5.035  0.00  0.00    -0.270 OA
ATOM     31  H   UNL     1      22.378  19.446   7.035  0.00  0.00    +0.155 HD
BRANCH  14  15
ATOM     15  C   UNL     1      20.710  20.910   5.690  0.00  0.00    +0.037 A 
ATOM     16  C   UNL     1      20.001  19.635   5.558  0.00  0.00    +0.013 A 
ATOM     17  C   UNL     1      18.560  19.606   5.557  0.00  0.00    +0.005 A 
ATOM     18  C   UNL     1      17.818  20.858   5.690  0.00  0.00    -0.033 A 
ATOM     28  C   UNL     1      18.547  22.108   5.825  0.00  0.00    +0.005 A 
ATOM     29  C   UNL     1      19.960  22.140   5.826  0.00  0.00    +0.013 A 
BRANCH  18  19
ATOM     19  C   UNL     1      16.279  20.924   5.677  0.00  0.00    +0.119 C 
BRANCH  19  20
ATOM     20  N   UNL     1      15.592  21.113   6.990  0.00  0.00    -0.302 NA
ATOM     21  C   UNL     1      14.685  19.930   7.339  0.00  0.00    +0.066 C 
ATOM     22  C   UNL     1      13.992  20.135   8.726  0.00  0.00    -0.064 C 
ATOM     23  N   UNL     1      13.196  21.441   8.707  0.00  0.00    +0.379 N 
ATOM     24  C   UNL     1      12.496  21.607   9.989  0.00  0.00    -0.096 C 
ATOM     25  H   UNL     1      12.423  21.354   7.908  0.00  0.00    -0.082 HD
ATOM     26  C   UNL     1      14.090  22.622   8.357  0.00  0.00    -0.064 C 
ATOM     27  C   UNL     1      14.796  22.395   6.992  0.00  0.00    +0.066 C 
ENDBRANCH  19  20
ENDBRANCH  18  19
ENDBRANCH  14  15
ENDBRANCH  12  13
TORSDOF 6
ENDMDL
MODEL 4
REMARK VINA RESULT:      -7.4      5.323     15.205
REMARK  Name = C:\Users\Docking\Desktop\test protocol\1iep_ligandH.pdb
REMARK  8 active torsions:
REMARK  status: ('A' for Active; 'I' for Inactive)
REMARK    1  A    between atoms: _5  and  _11
REMARK    2  A    between atoms: _19  and  _21
REMARK    3  A    between atoms: _22  and  _66
REMARK    4  A    between atoms: _27  and  _30
REMARK    5  A    between atoms: _32  and  _33
REMARK    6  A    between atoms: _38  and  _43
REMARK    7  A    between atoms: _43  and  _46
REMARK    8  A    between atoms: _53  and  _55
REMARK                            x       y       z     vdW  Elec       q    Type
REMARK                         _______ _______ _______ _____ _____    ______ ____
ROOT
ATOM     10  C   UNL     1      26.483  14.396   2.686  0.00  0.00    +0.038 A 
ATOM     11  C   UNL     1      27.735  14.321   2.024  0.00  0.00    +0.047 A 
ATOM     12  C   UNL     1      28.337  13.038   1.696  0.00  0.00    +0.035 A 
ATOM     32  C   UNL     1      27.635  11.851   2.055  0.00  0.00    +0.024 A 
ATOM     33  C   UNL     1      26.362  11.909   2.730  0.00  0.00    +0.007 A 
ATOM     34  C   UNL     1      25.764  13.171   3.058  0.00  0.00    -0.029 A 
ATOM     35  C   UNL     1      24.401  13.173   3.787  0.00  0.00    +0.045 C 
ENDROOT
BRANCH  10   9
ATOM      4  C   UNL     1      26.178  18.337   5.409  0.00  0.00    +0.077 A 
ATOM      5  C   UNL     1      27.141  17.835   6.347  0.00  0.00    +0.048 A 
ATOM      6  C   UNL     1      27.685  16.555   6.096  0.00  0.00    +0.116 A 
ATOM      7  N   UNL     1      27.289  15.840   4.987  0.00  0.00    -0.223 NA
ATOM      8  C   UNL     1      26.358  16.353   4.103  0.00  0.00    +0.220 A 
ATOM      9  N   UNL     1      25.951  15.654   2.976  0.00  0.00    -0.283 N 
ATOM     36  H   UNL     1      25.256  16.064   2.353  0.00  0.00    +0.155 HD
ATOM     37  N   UNL     1      25.822  17.572   4.321  0.00  0.00    -0.214 NA
BRANCH   4   3
ATOM      1  C   UNL     1      24.291  21.447   6.846  0.00  0.00    +0.020 A 
ATOM      2  C   UNL     1      24.918  20.147   6.777  0.00  0.00    +0.013 A 
ATOM      3  C   UNL     1      25.516  19.674   5.535  0.00  0.00    +0.019 A 
ATOM     38  C   UNL     1      25.464  20.547   4.372  0.00  0.00    +0.120 A 
ATOM     39  N   UNL     1      24.852  21.793   4.468  0.00  0.00    -0.263 NA
ATOM     40  C   UNL     1      24.271  22.258   5.657  0.00  0.00    +0.111 A 
ENDBRANCH   4   3
ENDBRANCH  10   9
BRANCH  12  13
ATOM     13  N   UNL     1      29.609  12.900   1.031  0.00  0.00    -0.281 N 
ATOM     14  C   UNL     1      29.849  12.510  -0.276  0.00  0.00    +0.248 C 
ATOM     30  O   UNL     1      29.012  12.013  -1.014  0.00  0.00    -0.270 OA
ATOM     31  H   UNL     1      30.433  13.115   1.593  0.00  0.00    +0.155 HD
BRANCH  14  15
ATOM     15  C   UNL     1      31.222  12.685  -0.841  0.00  0.00    +0.037 A 
ATOM     16  C   UNL     1      32.067  11.530  -1.155  0.00  0.00    +0.013 A 
ATOM     17  C   UNL     1      33.394  11.727  -1.683  0.00  0.00    +0.005 A 
ATOM     18  C   UNL     1      33.883  13.086  -1.902  0.00  0.00    -0.033 A 
ATOM     28  C   UNL     1      33.022  14.214  -1.587  0.00  0.00    +0.005 A 
ATOM     29  C   UNL     1      31.721  14.025  -1.068  0.00  0.00    +0.013 A 
BRANCH  18  19
ATOM     19  C   UNL     1      35.293  13.391  -2.442  0.00  0.00    +0.119 C 
BRANCH  19  20
ATOM     20  N   UNL     1      36.166  14.276  -1.615  0.00  0.00    -0.302 NA
ATOM     21  C   UNL     1      37.417  14.723  -2.377  0.00  0.00    +0.066 C 
ATOM     22  C   UNL     1      38.307  15.667  -1.504  0.00  0.00    -0.064 C 
ATOM     23  N   UNL     1      38.689  14.950  -0.208  0.00  0.00    +0.379 N 
ATOM     24  C   UNL     1      39.573  15.813   0.588  0.00  0.00    -0.096 C 
ATOM     25  H   UNL     1      39.266  14.037  -0.485  0.00  0.00    -0.082 HD
ATOM     26  C   UNL     1      37.451  14.500   0.554  0.00  0.00    -0.064 C 
ATOM     27  C   UNL     1      36.558  13.586  -0.332  0.00  0.00    +0.066 C 
ENDBRANCH  19  20
ENDBRANCH  18  19
ENDBRANCH  14  15
ENDBRANCH  12  13
TORSDOF 6
ENDMDL
MODEL 5
REMARK VINA RESULT:      -7.4     12.995     20.121
REMARK  Name = C:\Users\Docking\Desktop\test protocol\1iep_ligandH.pdb
REMARK  8 active torsions:
REMARK  status: ('A' for Active; 'I' for Inactive)
REMARK    1  A    between atoms: _5  and  _11
REMARK    2  A    between atoms: _19  and  _21
REMARK    3  A    between atoms: _22  and  _66
REMARK    4  A    between atoms: _27  and  _30
REMARK    5  A    between atoms: _32  and  _33
REMARK    6  A    between atoms: _38  and  _43
REMARK    7  A    between atoms: _43  and  _46
REMARK    8  A    between atoms: _53  and  _55
REMARK                            x       y       z     vdW  Elec       q    Type
REMARK                         _______ _______ _______ _____ _____    ______ ____
ROOT
ATOM     10  C   UNL     1      40.008   6.317   4.099  0.00  0.00    +0.038 A 
ATOM     11  C   UNL     1      38.752   6.328   3.440  0.00  0.00    +0.047 A 
ATOM     12  C   UNL     1      37.889   7.497   3.485  0.00  0.00    +0.035 A 
ATOM     32  C   UNL     1      38.338   8.641   4.208  0.00  0.00    +0.024 A 
ATOM     33  C   UNL     1      39.611   8.647   4.885  0.00  0.00    +0.007 A 
ATOM     34  C   UNL     1      40.465   7.494   4.846  0.00  0.00    -0.029 A 
ATOM     35  C   UNL     1      41.817   7.555   5.595  0.00  0.00    +0.045 C 
ENDROOT
BRANCH  10   9
ATOM      4  C   UNL     1      43.471   3.686   2.069  0.00  0.00    +0.077 A 
ATOM      5  C   UNL     1      43.712   4.675   1.058  0.00  0.00    +0.048 A 
ATOM      6  C   UNL     1      42.918   5.843   1.091  0.00  0.00    +0.116 A 
ATOM      7  N   UNL     1      41.958   6.000   2.068  0.00  0.00    -0.223 NA
ATOM      8  C   UNL     1      41.751   5.026   3.027  0.00  0.00    +0.220 A 
ATOM      9  N   UNL     1      40.797   5.166   4.023  0.00  0.00    -0.283 N 
ATOM     36  H   UNL     1      40.669   4.422   4.707  0.00  0.00    +0.155 HD
ATOM     37  N   UNL     1      42.495   3.901   3.016  0.00  0.00    -0.214 NA
BRANCH   4   3
ATOM      1  C   UNL     1      45.072   0.392   3.444  0.00  0.00    +0.020 A 
ATOM      2  C   UNL     1      44.326   1.629   3.401  0.00  0.00    +0.013 A 
ATOM      3  C   UNL     1      44.231   2.399   2.168  0.00  0.00    +0.019 A 
ATOM     38  C   UNL     1      44.906   1.887   0.986  0.00  0.00    +0.120 A 
ATOM     39  N   UNL     1      45.619   0.693   1.057  0.00  0.00    -0.263 NA
ATOM     40  C   UNL     1      45.718  -0.056   2.239  0.00  0.00    +0.111 A 
ENDBRANCH   4   3
ENDBRANCH  10   9
BRANCH  12  13
ATOM     13  N   UNL     1      36.600   7.564   2.842  0.00  0.00    -0.281 N 
ATOM     14  C   UNL     1      36.244   8.296   1.721  0.00  0.00    +0.248 C 
ATOM     30  O   UNL     1      36.930   9.177   1.225  0.00  0.00    -0.270 OA
ATOM     31  H   UNL     1      35.860   7.003   3.264  0.00  0.00    +0.155 HD
BRANCH  14  15
ATOM     15  C   UNL     1      34.929   8.021   1.066  0.00  0.00    +0.037 A 
ATOM     16  C   UNL     1      34.073   6.919   1.514  0.00  0.00    +0.013 A 
ATOM     17  C   UNL     1      32.817   6.664   0.854  0.00  0.00    +0.005 A 
ATOM     18  C   UNL     1      32.410   7.515  -0.262  0.00  0.00    -0.033 A 
ATOM     28  C   UNL     1      33.276   8.604  -0.683  0.00  0.00    +0.005 A 
ATOM     29  C   UNL     1      34.508   8.856  -0.038  0.00  0.00    +0.013 A 
BRANCH  18  19
ATOM     19  C   UNL     1      31.097   7.303  -1.039  0.00  0.00    +0.119 C 
BRANCH  19  20
ATOM     20  N   UNL     1      30.104   8.418  -1.020  0.00  0.00    -0.302 NA
ATOM     21  C   UNL     1      29.819   8.910   0.402  0.00  0.00    +0.066 C 
ATOM     22  C   UNL     1      28.795  10.092   0.401  0.00  0.00    -0.064 C 
ATOM     23  N   UNL     1      27.504   9.643  -0.285  0.00  0.00    +0.379 N 
ATOM     24  C   UNL     1      26.518  10.733  -0.236  0.00  0.00    -0.096 C 
ATOM     25  H   UNL     1      27.091   8.788   0.298  0.00  0.00    -0.082 HD
ATOM     26  C   UNL     1      27.778   9.150  -1.699  0.00  0.00    -0.064 C 
ATOM     27  C   UNL     1      28.819   7.995  -1.689  0.00  0.00    +0.066 C 
ENDBRANCH  19  20
ENDBRANCH  18  19
ENDBRANCH  14  15
ENDBRANCH  12  13
TORSDOF 6
ENDMDL
