MODEL 1
REMARK VINA RESULT:     -10.1      0.000      0.000
REMARK  Name = C:\Users\Docking\Desktop\test protocol\1iep_ligandH.pdb
REMARK  8 active torsions:
REMARK  status: ('A' for Active; 'I' for Inactive)
REMARK    1  A    between atoms: _5  and  _11
REMARK    2  A    between atoms: _19  and  _21
REMARK    3  A    between atoms: _22  and  _66
REMARK    4  A    between atoms: _27  and  _30
REMARK    5  A    between atoms: _32  and  _33
REMARK    6  A    between atoms: _38  and  _43
REMARK    7  A    between atoms: _43  and  _46
REMARK    8  A    between atoms: _53  and  _55
REMARK                            x       y       z     vdW  Elec       q    Type
REMARK                         _______ _______ _______ _____ _____    ______ ____
ROOT
ATOM     10  C   UNL     1     -18.845 -17.023  20.199  0.00  0.00    +0.038 A 
ATOM     11  C   UNL     1     -19.444 -15.766  19.931  0.00  0.00    +0.047 A 
ATOM     12  C   UNL     1     -20.543 -15.267  20.743  0.00  0.00    +0.035 A 
ATOM     32  C   UNL     1     -21.005 -16.075  21.823  0.00  0.00    +0.024 A 
ATOM     33  C   UNL     1     -20.408 -17.356  22.109  0.00  0.00    +0.007 A 
ATOM     34  C   UNL     1     -19.325 -17.854  21.309  0.00  0.00    -0.029 A 
ATOM     35  C   UNL     1     -18.728 -19.237  21.658  0.00  0.00    +0.045 C 
ENDROOT
BRANCH  10   9
ATOM      4  C   UNL     1     -17.006 -19.890  16.817  0.00  0.00    +0.077 A 
ATOM      5  C   UNL     1     -18.237 -20.611  16.675  0.00  0.00    +0.048 A 
ATOM      6  C   UNL     1     -19.318 -20.218  17.496  0.00  0.00    +0.116 A 
ATOM      7  N   UNL     1     -19.167 -19.179  18.389  0.00  0.00    -0.223 NA
ATOM      8  C   UNL     1     -17.965 -18.505  18.502  0.00  0.00    +0.220 A 
ATOM      9  N   UNL     1     -17.792 -17.452  19.387  0.00  0.00    -0.283 N 
ATOM     36  H   UNL     1     -16.887 -16.986  19.446  0.00  0.00    +0.155 HD
ATOM     37  N   UNL     1     -16.917 -18.863  17.730  0.00  0.00    -0.214 NA
BRANCH   4   3
ATOM      1  C   UNL     1     -14.599 -21.030  13.952  0.00  0.00    +0.020 A 
ATOM      2  C   UNL     1     -15.817 -20.765  14.682  0.00  0.00    +0.013 A 
ATOM      3  C   UNL     1     -15.774 -20.185  16.018  0.00  0.00    +0.019 A 
ATOM     38  C   UNL     1     -14.472 -19.883  16.593  0.00  0.00    +0.120 A 
ATOM     39  N   UNL     1     -13.315 -20.151  15.867  0.00  0.00    -0.263 NA
ATOM     40  C   UNL     1     -13.344 -20.710  14.581  0.00  0.00    +0.111 A 
ENDBRANCH   4   3
ENDBRANCH  10   9
BRANCH  12  13
ATOM     13  N   UNL     1     -21.196 -14.003  20.513  0.00  0.00    -0.281 N 
ATOM     14  C   UNL     1     -21.047 -12.825  21.228  0.00  0.00    +0.248 C 
ATOM     30  O   UNL     1     -20.487 -12.740  22.311  0.00  0.00    -0.270 OA
ATOM     31  H   UNL     1     -21.847 -13.972  19.729  0.00  0.00    +0.155 HD
BRANCH  14  15
ATOM     15  C   UNL     1     -21.616 -11.563  20.665  0.00  0.00    +0.037 A 
ATOM     16  C   UNL     1     -22.620 -11.590  19.598  0.00  0.00    +0.013 A 
ATOM     17  C   UNL     1     -23.139 -10.357  19.062  0.00  0.00    +0.005 A 
ATOM     18  C   UNL     1     -22.656  -9.085  19.594  0.00  0.00    -0.033 A 
ATOM     28  C   UNL     1     -21.664  -9.087  20.656  0.00  0.00    +0.005 A 
ATOM     29  C   UNL     1     -21.151 -10.293  21.183  0.00  0.00    +0.013 A 
BRANCH  18  19
ATOM     19  C   UNL     1     -23.139  -7.721  19.067  0.00  0.00    +0.119 C 
BRANCH  19  20
ATOM     20  N   UNL     1     -23.483  -6.679  20.080  0.00  0.00    -0.302 NA
ATOM     21  C   UNL     1     -24.820  -6.966  20.768  0.00  0.00    +0.066 C 
ATOM     22  C   UNL     1     -25.153  -5.879  21.841  0.00  0.00    -0.064 C 
ATOM     23  N   UNL     1     -25.170  -4.501  21.178  0.00  0.00    +0.379 N 
ATOM     24  C   UNL     1     -25.540  -3.483  22.172  0.00  0.00    -0.096 C 
ATOM     25  H   UNL     1     -25.963  -4.513  20.394  0.00  0.00    -0.082 HD
ATOM     26  C   UNL     1     -23.845  -4.208  20.489  0.00  0.00    -0.064 C 
ATOM     27  C   UNL     1     -23.509  -5.310  19.446  0.00  0.00    +0.066 C 
ENDBRANCH  19  20
ENDBRANCH  18  19
ENDBRANCH  14  15
ENDBRANCH  12  13
TORSDOF 6
ENDMDL
MODEL 2
REMARK VINA RESULT:     -10.0      5.406     10.458
REMARK  Name = C:\Users\Docking\Desktop\test protocol\1iep_ligandH.pdb
REMARK  8 active torsions:
REMARK  status: ('A' for Active; 'I' for Inactive)
REMARK    1  A    between atoms: _5  and  _11
REMARK    2  A    between atoms: _19  and  _21
REMARK    3  A    between atoms: _22  and  _66
REMARK    4  A    between atoms: _27  and  _30
REMARK    5  A    between atoms: _32  and  _33
REMARK    6  A    between atoms: _38  and  _43
REMARK    7  A    between atoms: _43  and  _46
REMARK    8  A    between atoms: _53  and  _55
REMARK                            x       y       z     vdW  Elec       q    Type
REMARK                         _______ _______ _______ _____ _____    ______ ____
ROOT
ATOM     10  C   UNL     1     -11.640 -20.186  14.725  0.00  0.00    +0.038 A 
ATOM     11  C   UNL     1     -12.883 -19.893  15.342  0.00  0.00    +0.047 A 
ATOM     12  C   UNL     1     -14.137 -20.340  14.757  0.00  0.00    +0.035 A 
ATOM     32  C   UNL     1     -14.089 -21.086  13.544  0.00  0.00    +0.024 A 
ATOM     33  C   UNL     1     -12.834 -21.392  12.902  0.00  0.00    +0.007 A 
ATOM     34  C   UNL     1     -11.594 -20.951  13.473  0.00  0.00    -0.029 A 
ATOM     35  C   UNL     1     -10.279 -21.302  12.739  0.00  0.00    +0.045 C 
ENDROOT
BRANCH  10   9
ATOM      4  C   UNL     1      -8.432 -16.749  15.692  0.00  0.00    +0.077 A 
ATOM      5  C   UNL     1      -9.140 -15.783  14.902  0.00  0.00    +0.048 A 
ATOM      6  C   UNL     1     -10.322 -16.213  14.258  0.00  0.00    +0.116 A 
ATOM      7  N   UNL     1     -10.754 -17.514  14.400  0.00  0.00    -0.223 NA
ATOM      8  C   UNL     1     -10.046 -18.421  15.167  0.00  0.00    +0.220 A 
ATOM      9  N   UNL     1     -10.466 -19.732  15.330  0.00  0.00    -0.283 N 
ATOM     36  H   UNL     1      -9.912 -20.372  15.899  0.00  0.00    +0.155 HD
ATOM     37  N   UNL     1      -8.914 -18.035  15.792  0.00  0.00    -0.214 NA
BRANCH   4   3
ATOM      1  C   UNL     1      -4.693 -15.971  16.540  0.00  0.00    +0.020 A 
ATOM      2  C   UNL     1      -5.884 -16.262  15.774  0.00  0.00    +0.013 A 
ATOM      3  C   UNL     1      -7.169 -16.446  16.436  0.00  0.00    +0.019 A 
ATOM     38  C   UNL     1      -7.216 -16.327  17.886  0.00  0.00    +0.120 A 
ATOM     39  N   UNL     1      -6.053 -16.047  18.597  0.00  0.00    -0.263 NA
ATOM     40  C   UNL     1      -4.811 -15.870  17.971  0.00  0.00    +0.111 A 
ENDBRANCH   4   3
ENDBRANCH  10   9
BRANCH  12  13
ATOM     13  N   UNL     1     -15.430 -20.066  15.334  0.00  0.00    -0.281 N 
ATOM     14  C   UNL     1     -16.131 -20.828  16.254  0.00  0.00    +0.248 C 
ATOM     30  O   UNL     1     -15.845 -21.976  16.562  0.00  0.00    -0.270 OA
ATOM     31  H   UNL     1     -15.884 -19.206  15.026  0.00  0.00    +0.155 HD
BRANCH  14  15
ATOM     15  C   UNL     1     -17.331 -20.235  16.918  0.00  0.00    +0.037 A 
ATOM     16  C   UNL     1     -18.658 -20.837  16.768  0.00  0.00    +0.013 A 
ATOM     17  C   UNL     1     -19.802 -20.235  17.406  0.00  0.00    +0.005 A 
ATOM     18  C   UNL     1     -19.623 -19.022  18.201  0.00  0.00    -0.033 A 
ATOM     28  C   UNL     1     -18.295 -18.449  18.337  0.00  0.00    +0.005 A 
ATOM     29  C   UNL     1     -17.171 -19.036  17.713  0.00  0.00    +0.013 A 
BRANCH  18  19
ATOM     19  C   UNL     1     -20.791 -18.300  18.899  0.00  0.00    +0.119 C 
BRANCH  19  20
ATOM     20  N   UNL     1     -20.445 -17.316  19.968  0.00  0.00    -0.302 NA
ATOM     21  C   UNL     1     -21.588 -17.132  20.970  0.00  0.00    +0.066 C 
ATOM     22  C   UNL     1     -21.201 -16.117  22.094  0.00  0.00    -0.064 C 
ATOM     23  N   UNL     1     -20.816 -14.779  21.460  0.00  0.00    +0.379 N 
ATOM     24  C   UNL     1     -20.508 -13.805  22.517  0.00  0.00    -0.096 C 
ATOM     25  H   UNL     1     -21.704 -14.402  20.901  0.00  0.00    -0.082 HD
ATOM     26  C   UNL     1     -19.682 -14.954  20.460  0.00  0.00    -0.064 C 
ATOM     27  C   UNL     1     -20.066 -15.987  19.364  0.00  0.00    +0.066 C 
ENDBRANCH  19  20
ENDBRANCH  18  19
ENDBRANCH  14  15
ENDBRANCH  12  13
TORSDOF 6
ENDMDL
MODEL 3
REMARK VINA RESULT:     -10.0      6.924     10.732
REMARK  Name = C:\Users\Docking\Desktop\test protocol\1iep_ligandH.pdb
REMARK  8 active torsions:
REMARK  status: ('A' for Active; 'I' for Inactive)
REMARK    1  A    between atoms: _5  and  _11
REMARK    2  A    between atoms: _19  and  _21
REMARK    3  A    between atoms: _22  and  _66
REMARK    4  A    between atoms: _27  and  _30
REMARK    5  A    between atoms: _32  and  _33
REMARK    6  A    between atoms: _38  and  _43
REMARK    7  A    between atoms: _43  and  _46
REMARK    8  A    between atoms: _53  and  _55
REMARK                            x       y       z     vdW  Elec       q    Type
REMARK                         _______ _______ _______ _____ _____    ______ ____
ROOT
ATOM     10  C   UNL     1     -12.014 -20.189  14.816  0.00  0.00    +0.038 A 
ATOM     11  C   UNL     1     -13.263 -19.926  15.433  0.00  0.00    +0.047 A 
ATOM     12  C   UNL     1     -14.509 -20.378  14.833  0.00  0.00    +0.035 A 
ATOM     32  C   UNL     1     -14.445 -21.098  13.605  0.00  0.00    +0.024 A 
ATOM     33  C   UNL     1     -13.184 -21.373  12.963  0.00  0.00    +0.007 A 
ATOM     34  C   UNL     1     -11.952 -20.927  13.549  0.00  0.00    -0.029 A 
ATOM     35  C   UNL     1     -10.629 -21.245  12.813  0.00  0.00    +0.045 C 
ENDROOT
BRANCH  10   9
ATOM      4  C   UNL     1      -8.753 -16.782  15.709  0.00  0.00    +0.077 A 
ATOM      5  C   UNL     1      -9.411 -15.843  14.848  0.00  0.00    +0.048 A 
ATOM      6  C   UNL     1     -10.582 -16.278  14.188  0.00  0.00    +0.116 A 
ATOM      7  N   UNL     1     -11.051 -17.559  14.382  0.00  0.00    -0.223 NA
ATOM      8  C   UNL     1     -10.391 -18.440  15.219  0.00  0.00    +0.220 A 
ATOM      9  N   UNL     1     -10.849 -19.731  15.435  0.00  0.00    -0.283 N 
ATOM     36  H   UNL     1     -10.329 -20.353  16.054  0.00  0.00    +0.155 HD
ATOM     37  N   UNL     1      -9.270 -18.049  15.860  0.00  0.00    -0.214 NA
BRANCH   4   3
ATOM      1  C   UNL     1      -5.032 -16.008  16.635  0.00  0.00    +0.020 A 
ATOM      2  C   UNL     1      -6.204 -16.310  15.846  0.00  0.00    +0.013 A 
ATOM      3  C   UNL     1      -7.507 -16.470  16.479  0.00  0.00    +0.019 A 
ATOM     38  C   UNL     1      -7.591 -16.317  17.924  0.00  0.00    +0.120 A 
ATOM     39  N   UNL     1      -6.445 -16.028  18.658  0.00  0.00    -0.263 NA
ATOM     40  C   UNL     1      -5.185 -15.873  18.060  0.00  0.00    +0.111 A 
ENDBRANCH   4   3
ENDBRANCH  10   9
BRANCH  12  13
ATOM     13  N   UNL     1     -15.808 -20.133  15.410  0.00  0.00    -0.281 N 
ATOM     14  C   UNL     1     -16.320 -20.631  16.597  0.00  0.00    +0.248 C 
ATOM     30  O   UNL     1     -15.815 -21.538  17.241  0.00  0.00    -0.270 OA
ATOM     31  H   UNL     1     -16.424 -19.519  14.879  0.00  0.00    +0.155 HD
BRANCH  14  15
ATOM     15  C   UNL     1     -17.584 -20.047  17.139  0.00  0.00    +0.037 A 
ATOM     16  C   UNL     1     -18.872 -20.720  16.956  0.00  0.00    +0.013 A 
ATOM     17  C   UNL     1     -20.079 -20.126  17.475  0.00  0.00    +0.005 A 
ATOM     18  C   UNL     1     -20.002 -18.851  18.183  0.00  0.00    -0.033 A 
ATOM     28  C   UNL     1     -18.711 -18.207  18.355  0.00  0.00    +0.005 A 
ATOM     29  C   UNL     1     -17.526 -18.786  17.847  0.00  0.00    +0.013 A 
BRANCH  18  19
ATOM     19  C   UNL     1     -21.241 -18.134  18.752  0.00  0.00    +0.119 C 
BRANCH  19  20
ATOM     20  N   UNL     1     -21.640 -18.464  20.152  0.00  0.00    -0.302 NA
ATOM     21  C   UNL     1     -22.807 -19.455  20.199  0.00  0.00    +0.066 C 
ATOM     22  C   UNL     1     -23.196 -19.807  21.671  0.00  0.00    -0.064 C 
ATOM     23  N   UNL     1     -23.547 -18.523  22.424  0.00  0.00    +0.379 N 
ATOM     24  C   UNL     1     -23.969 -18.856  23.792  0.00  0.00    -0.096 C 
ATOM     25  H   UNL     1     -24.415 -18.054  21.906  0.00  0.00    -0.082 HD
ATOM     26  C   UNL     1     -22.393 -17.531  22.381  0.00  0.00    -0.064 C 
ATOM     27  C   UNL     1     -21.995 -17.210  20.913  0.00  0.00    +0.066 C 
ENDBRANCH  19  20
ENDBRANCH  18  19
ENDBRANCH  14  15
ENDBRANCH  12  13
TORSDOF 6
ENDMDL
MODEL 4
REMARK VINA RESULT:      -9.7      2.026      2.863
REMARK  Name = C:\Users\Docking\Desktop\test protocol\1iep_ligandH.pdb
REMARK  8 active torsions:
REMARK  status: ('A' for Active; 'I' for Inactive)
REMARK    1  A    between atoms: _5  and  _11
REMARK    2  A    between atoms: _19  and  _21
REMARK    3  A    between atoms: _22  and  _66
REMARK    4  A    between atoms: _27  and  _30
REMARK    5  A    between atoms: _32  and  _33
REMARK    6  A    between atoms: _38  and  _43
REMARK    7  A    between atoms: _43  and  _46
REMARK    8  A    between atoms: _53  and  _55
REMARK                            x       y       z     vdW  Elec       q    Type
REMARK                         _______ _______ _______ _____ _____    ______ ____
ROOT
ATOM     10  C   UNL     1     -19.057 -15.754  21.370  0.00  0.00    +0.038 A 
ATOM     11  C   UNL     1     -19.439 -14.471  20.903  0.00  0.00    +0.047 A 
ATOM     12  C   UNL     1     -20.176 -13.549  21.753  0.00  0.00    +0.035 A 
ATOM     32  C   UNL     1     -20.506 -13.967  23.075  0.00  0.00    +0.024 A 
ATOM     33  C   UNL     1     -20.127 -15.268  23.566  0.00  0.00    +0.007 A 
ATOM     34  C   UNL     1     -19.401 -16.182  22.731  0.00  0.00    -0.029 A 
ATOM     35  C   UNL     1     -19.026 -17.567  23.308  0.00  0.00    +0.045 C 
ENDROOT
BRANCH  10   9
ATOM      4  C   UNL     1     -18.865 -19.159  17.993  0.00  0.00    +0.077 A 
ATOM      5  C   UNL     1     -20.294 -19.286  17.956  0.00  0.00    +0.048 A 
ATOM      6  C   UNL     1     -21.041 -18.462  18.827  0.00  0.00    +0.116 A 
ATOM      7  N   UNL     1     -20.397 -17.580  19.668  0.00  0.00    -0.223 NA
ATOM      8  C   UNL     1     -19.018 -17.484  19.680  0.00  0.00    +0.220 A 
ATOM      9  N   UNL     1     -18.350 -16.598  20.511  0.00  0.00    -0.283 N 
ATOM     36  H   UNL     1     -17.331 -16.563  20.496  0.00  0.00    +0.155 HD
ATOM     37  N   UNL     1     -18.281 -18.261  18.859  0.00  0.00    -0.214 NA
BRANCH   4   3
ATOM      1  C   UNL     1     -15.752 -20.308  15.922  0.00  0.00    +0.020 A 
ATOM      2  C   UNL     1     -16.608 -19.497  16.756  0.00  0.00    +0.013 A 
ATOM      3  C   UNL     1     -17.939 -19.959  17.131  0.00  0.00    +0.019 A 
ATOM     38  C   UNL     1     -18.376 -21.258  16.641  0.00  0.00    +0.120 A 
ATOM     39  N   UNL     1     -17.531 -22.017  15.838  0.00  0.00    -0.263 NA
ATOM     40  C   UNL     1     -16.249 -21.581  15.469  0.00  0.00    +0.111 A 
ENDBRANCH   4   3
ENDBRANCH  10   9
BRANCH  12  13
ATOM     13  N   UNL     1     -20.598 -12.236  21.331  0.00  0.00    -0.281 N 
ATOM     14  C   UNL     1     -21.626 -11.911  20.461  0.00  0.00    +0.248 C 
ATOM     30  O   UNL     1     -22.206 -12.714  19.745  0.00  0.00    -0.270 OA
ATOM     31  H   UNL     1     -20.075 -11.452  21.720  0.00  0.00    +0.155 HD
BRANCH  14  15
ATOM     15  C   UNL     1     -22.065 -10.486  20.363  0.00  0.00    +0.037 A 
ATOM     16  C   UNL     1     -23.432 -10.136  19.970  0.00  0.00    +0.013 A 
ATOM     17  C   UNL     1     -23.824  -8.753  19.866  0.00  0.00    +0.005 A 
ATOM     18  C   UNL     1     -22.846  -7.708  20.158  0.00  0.00    -0.033 A 
ATOM     28  C   UNL     1     -21.498  -8.082  20.551  0.00  0.00    +0.005 A 
ATOM     29  C   UNL     1     -21.110  -9.437  20.652  0.00  0.00    +0.013 A 
BRANCH  18  19
ATOM     19  C   UNL     1     -23.171  -6.206  20.052  0.00  0.00    +0.119 C 
BRANCH  19  20
ATOM     20  N   UNL     1     -23.865  -5.742  18.814  0.00  0.00    -0.302 NA
ATOM     21  C   UNL     1     -23.097  -6.126  17.546  0.00  0.00    +0.066 C 
ATOM     22  C   UNL     1     -23.849  -5.652  16.260  0.00  0.00    -0.064 C 
ATOM     23  N   UNL     1     -24.063  -4.139  16.326  0.00  0.00    +0.379 N 
ATOM     24  C   UNL     1     -24.718  -3.682  15.092  0.00  0.00    -0.096 C 
ATOM     25  H   UNL     1     -23.059  -3.657  16.375  0.00  0.00    -0.082 HD
ATOM     26  C   UNL     1     -24.824  -3.748  17.585  0.00  0.00    -0.064 C 
ATOM     27  C   UNL     1     -24.083  -4.249  18.856  0.00  0.00    +0.066 C 
ENDBRANCH  19  20
ENDBRANCH  18  19
ENDBRANCH  14  15
ENDBRANCH  12  13
TORSDOF 6
ENDMDL
MODEL 5
REMARK VINA RESULT:      -9.6      5.404     13.824
REMARK  Name = C:\Users\Docking\Desktop\test protocol\1iep_ligandH.pdb
REMARK  8 active torsions:
REMARK  status: ('A' for Active; 'I' for Inactive)
REMARK    1  A    between atoms: _5  and  _11
REMARK    2  A    between atoms: _19  and  _21
REMARK    3  A    between atoms: _22  and  _66
REMARK    4  A    between atoms: _27  and  _30
REMARK    5  A    between atoms: _32  and  _33
REMARK    6  A    between atoms: _38  and  _43
REMARK    7  A    between atoms: _43  and  _46
REMARK    8  A    between atoms: _53  and  _55
REMARK                            x       y       z     vdW  Elec       q    Type
REMARK                         _______ _______ _______ _____ _____    ______ ____
ROOT
ATOM     10  C   UNL     1     -20.649 -18.270  20.611  0.00  0.00    +0.038 A 
ATOM     11  C   UNL     1     -19.499 -18.629  19.863  0.00  0.00    +0.047 A 
ATOM     12  C   UNL     1     -19.606 -19.061  18.478  0.00  0.00    +0.035 A 
ATOM     32  C   UNL     1     -20.901 -19.113  17.885  0.00  0.00    +0.024 A 
ATOM     33  C   UNL     1     -22.081 -18.753  18.631  0.00  0.00    +0.007 A 
ATOM     34  C   UNL     1     -21.982 -18.328  19.998  0.00  0.00    -0.029 A 
ATOM     35  C   UNL     1     -23.281 -17.960  20.752  0.00  0.00    +0.045 C 
ENDROOT
BRANCH  10   9
ATOM      4  C   UNL     1     -20.275 -14.870  23.978  0.00  0.00    +0.077 A 
ATOM      5  C   UNL     1     -20.383 -13.817  23.011  0.00  0.00    +0.048 A 
ATOM      6  C   UNL     1     -20.526 -14.192  21.656  0.00  0.00    +0.116 A 
ATOM      7  N   UNL     1     -20.558 -15.525  21.307  0.00  0.00    -0.223 NA
ATOM      8  C   UNL     1     -20.450 -16.516  22.265  0.00  0.00    +0.220 A 
ATOM      9  N   UNL     1     -20.488 -17.862  21.937  0.00  0.00    -0.283 N 
ATOM     36  H   UNL     1     -20.397 -18.563  22.672  0.00  0.00    +0.155 HD
ATOM     37  N   UNL     1     -20.311 -16.184  23.565  0.00  0.00    -0.214 NA
BRANCH   4   3
ATOM      1  C   UNL     1     -21.019 -13.977  27.713  0.00  0.00    +0.020 A 
ATOM      2  C   UNL     1     -21.220 -14.191  26.298  0.00  0.00    +0.013 A 
ATOM      3  C   UNL     1     -20.122 -14.634  25.449  0.00  0.00    +0.019 A 
ATOM     38  C   UNL     1     -18.823 -14.855  26.067  0.00  0.00    +0.120 A 
ATOM     39  N   UNL     1     -18.659 -14.640  27.432  0.00  0.00    -0.263 NA
ATOM     40  C   UNL     1     -19.708 -14.212  28.259  0.00  0.00    +0.111 A 
ENDBRANCH   4   3
ENDBRANCH  10   9
BRANCH  12  13
ATOM     13  N   UNL     1     -18.474 -19.445  17.671  0.00  0.00    -0.281 N 
ATOM     14  C   UNL     1     -18.181 -20.697  17.157  0.00  0.00    +0.248 C 
ATOM     30  O   UNL     1     -18.740 -21.731  17.493  0.00  0.00    -0.270 OA
ATOM     31  H   UNL     1     -17.809 -18.703  17.453  0.00  0.00    +0.155 HD
BRANCH  14  15
ATOM     15  C   UNL     1     -17.101 -20.822  16.131  0.00  0.00    +0.037 A 
ATOM     16  C   UNL     1     -16.038 -19.820  16.022  0.00  0.00    +0.013 A 
ATOM     17  C   UNL     1     -15.017 -19.955  15.013  0.00  0.00    +0.005 A 
ATOM     18  C   UNL     1     -15.055 -21.099  14.105  0.00  0.00    -0.033 A 
ATOM     28  C   UNL     1     -16.118 -22.081  14.239  0.00  0.00    +0.005 A 
ATOM     29  C   UNL     1     -17.121 -21.951  15.226  0.00  0.00    +0.013 A 
BRANCH  18  19
ATOM     19  C   UNL     1     -14.020 -21.312  12.985  0.00  0.00    +0.119 C 
BRANCH  19  20
ATOM     20  N   UNL     1     -12.603 -21.542  13.398  0.00  0.00    -0.302 NA
ATOM     21  C   UNL     1     -11.624 -20.682  12.595  0.00  0.00    +0.066 C 
ATOM     22  C   UNL     1     -10.149 -20.918  13.055  0.00  0.00    -0.064 C 
ATOM     23  N   UNL     1      -9.806 -22.402  12.916  0.00  0.00    +0.379 N 
ATOM     24  C   UNL     1      -8.401 -22.619  13.293  0.00  0.00    -0.096 C 
ATOM     25  H   UNL     1      -9.913 -22.674  11.840  0.00  0.00    -0.082 HD
ATOM     26  C   UNL     1     -10.776 -23.266  13.709  0.00  0.00    -0.064 C 
ATOM     27  C   UNL     1     -12.242 -23.001  13.264  0.00  0.00    +0.066 C 
ENDBRANCH  19  20
ENDBRANCH  18  19
ENDBRANCH  14  15
ENDBRANCH  12  13
TORSDOF 6
ENDMDL
