MODEL 1
REMARK VINA RESULT:      -8.7      0.000      0.000
REMARK  Name = C:\Users\Docking\Desktop\test protocol\1iep_ligandH.pdb
REMARK  8 active torsions:
REMARK  status: ('A' for Active; 'I' for Inactive)
REMARK    1  A    between atoms: _5  and  _11
REMARK    2  A    between atoms: _19  and  _21
REMARK    3  A    between atoms: _22  and  _66
REMARK    4  A    between atoms: _27  and  _30
REMARK    5  A    between atoms: _32  and  _33
REMARK    6  A    between atoms: _38  and  _43
REMARK    7  A    between atoms: _43  and  _46
REMARK    8  A    between atoms: _53  and  _55
REMARK                            x       y       z     vdW  Elec       q    Type
REMARK                         _______ _______ _______ _____ _____    ______ ____
ROOT
ATOM     10  C   UNL     1      20.259  25.707  14.719  0.00  0.00    +0.038 A 
ATOM     11  C   UNL     1      21.650  25.907  14.908  0.00  0.00    +0.047 A 
ATOM     12  C   UNL     1      22.220  27.245  14.944  0.00  0.00    +0.035 A 
ATOM     32  C   UNL     1      21.342  28.357  14.786  0.00  0.00    +0.024 A 
ATOM     33  C   UNL     1      19.926  28.172  14.591  0.00  0.00    +0.007 A 
ATOM     34  C   UNL     1      19.359  26.854  14.553  0.00  0.00    -0.029 A 
ATOM     35  C   UNL     1      17.834  26.714  14.335  0.00  0.00    +0.045 C 
ENDROOT
BRANCH  10   9
ATOM      4  C   UNL     1      18.675  21.826  12.380  0.00  0.00    +0.077 A 
ATOM      5  C   UNL     1      18.815  22.465  11.103  0.00  0.00    +0.048 A 
ATOM      6  C   UNL     1      19.292  23.795  11.092  0.00  0.00    +0.116 A 
ATOM      7  N   UNL     1      19.602  24.429  12.276  0.00  0.00    -0.223 NA
ATOM      8  C   UNL     1      19.453  23.785  13.490  0.00  0.00    +0.220 A 
ATOM      9  N   UNL     1      19.766  24.400  14.693  0.00  0.00    -0.283 N 
ATOM     36  H   UNL     1      19.635  23.893  15.568  0.00  0.00    +0.155 HD
ATOM     37  N   UNL     1      18.998  22.515  13.528  0.00  0.00    -0.214 NA
BRANCH   4   3
ATOM      1  C   UNL     1      18.324  17.938  12.137  0.00  0.00    +0.020 A 
ATOM      2  C   UNL     1      18.836  19.274  11.935  0.00  0.00    +0.013 A 
ATOM      3  C   UNL     1      18.186  20.422  12.555  0.00  0.00    +0.019 A 
ATOM     38  C   UNL     1      17.013  20.182  13.381  0.00  0.00    +0.120 A 
ATOM     39  N   UNL     1      16.542  18.884  13.556  0.00  0.00    -0.263 NA
ATOM     40  C   UNL     1      17.158  17.772  12.963  0.00  0.00    +0.111 A 
ENDBRANCH   4   3
ENDBRANCH  10   9
BRANCH  12  13
ATOM     13  N   UNL     1      23.625  27.510  15.125  0.00  0.00    -0.281 N 
ATOM     14  C   UNL     1      24.390  27.311  16.263  0.00  0.00    +0.248 C 
ATOM     30  O   UNL     1      23.932  27.073  17.370  0.00  0.00    -0.270 OA
ATOM     31  H   UNL     1      24.117  27.891  14.316  0.00  0.00    +0.155 HD
BRANCH  14  15
ATOM     15  C   UNL     1      25.878  27.404  16.158  0.00  0.00    +0.037 A 
ATOM     16  C   UNL     1      26.687  26.242  15.782  0.00  0.00    +0.013 A 
ATOM     17  C   UNL     1      28.122  26.355  15.705  0.00  0.00    +0.005 A 
ATOM     18  C   UNL     1      28.757  27.636  16.004  0.00  0.00    -0.033 A 
ATOM     28  C   UNL     1      27.930  28.774  16.370  0.00  0.00    +0.005 A 
ATOM     29  C   UNL     1      26.523  28.667  16.448  0.00  0.00    +0.013 A 
BRANCH  18  19
ATOM     19  C   UNL     1      30.283  27.842  15.968  0.00  0.00    +0.119 C 
BRANCH  19  20
ATOM     20  N   UNL     1      30.939  27.862  14.627  0.00  0.00    -0.302 NA
ATOM     21  C   UNL     1      30.101  28.614  13.589  0.00  0.00    +0.066 C 
ATOM     22  C   UNL     1      30.812  28.644  12.197  0.00  0.00    -0.064 C 
ATOM     23  N   UNL     1      31.087  27.212  11.736  0.00  0.00    +0.379 N 
ATOM     24  C   UNL     1      31.703  27.236  10.402  0.00  0.00    -0.096 C 
ATOM     25  H   UNL     1      30.106  26.691  11.647  0.00  0.00    -0.082 HD
ATOM     26  C   UNL     1      31.918  26.457  12.764  0.00  0.00    -0.064 C 
ATOM     27  C   UNL     1      31.216  26.457  14.151  0.00  0.00    +0.066 C 
ENDBRANCH  19  20
ENDBRANCH  18  19
ENDBRANCH  14  15
ENDBRANCH  12  13
TORSDOF 6
ENDMDL
MODEL 2
REMARK VINA RESULT:      -8.6      1.026      1.326
REMARK  Name = C:\Users\Docking\Desktop\test protocol\1iep_ligandH.pdb
REMARK  8 active torsions:
REMARK  status: ('A' for Active; 'I' for Inactive)
REMARK    1  A    between atoms: _5  and  _11
REMARK    2  A    between atoms: _19  and  _21
REMARK    3  A    between atoms: _22  and  _66
REMARK    4  A    between atoms: _27  and  _30
REMARK    5  A    between atoms: _32  and  _33
REMARK    6  A    between atoms: _38  and  _43
REMARK    7  A    between atoms: _43  and  _46
REMARK    8  A    between atoms: _53  and  _55
REMARK                            x       y       z     vdW  Elec       q    Type
REMARK                         _______ _______ _______ _____ _____    ______ ____
ROOT
ATOM     10  C   UNL     1      20.245  25.607  14.767  0.00  0.00    +0.038 A 
ATOM     11  C   UNL     1      21.639  25.864  14.817  0.00  0.00    +0.047 A 
ATOM     12  C   UNL     1      22.152  27.224  14.869  0.00  0.00    +0.035 A 
ATOM     32  C   UNL     1      21.217  28.300  14.870  0.00  0.00    +0.024 A 
ATOM     33  C   UNL     1      19.796  28.057  14.818  0.00  0.00    +0.007 A 
ATOM     34  C   UNL     1      19.284  26.717  14.765  0.00  0.00    -0.029 A 
ATOM     35  C   UNL     1      17.752  26.516  14.704  0.00  0.00    +0.045 C 
ENDROOT
BRANCH  10   9
ATOM      4  C   UNL     1      18.723  21.737  12.370  0.00  0.00    +0.077 A 
ATOM      5  C   UNL     1      18.778  22.422  11.111  0.00  0.00    +0.048 A 
ATOM      6  C   UNL     1      19.197  23.772  11.124  0.00  0.00    +0.116 A 
ATOM      7  N   UNL     1      19.533  24.380  12.314  0.00  0.00    -0.223 NA
ATOM      8  C   UNL     1      19.467  23.692  13.511  0.00  0.00    +0.220 A 
ATOM      9  N   UNL     1      19.807  24.282  14.718  0.00  0.00    -0.283 N 
ATOM     36  H   UNL     1      19.738  23.742  15.581  0.00  0.00    +0.155 HD
ATOM     37  N   UNL     1      19.068  22.403  13.525  0.00  0.00    -0.214 NA
BRANCH   4   3
ATOM      1  C   UNL     1      18.424  17.866  11.899  0.00  0.00    +0.020 A 
ATOM      2  C   UNL     1      18.864  19.229  11.715  0.00  0.00    +0.013 A 
ATOM      3  C   UNL     1      18.303  20.308  12.519  0.00  0.00    +0.019 A 
ATOM     38  C   UNL     1      17.292  19.970  13.510  0.00  0.00    +0.120 A 
ATOM     39  N   UNL     1      16.887  18.648  13.663  0.00  0.00    -0.263 NA
ATOM     40  C   UNL     1      17.418  17.602  12.894  0.00  0.00    +0.111 A 
ENDBRANCH   4   3
ENDBRANCH  10   9
BRANCH  12  13
ATOM     13  N   UNL     1      23.557  27.546  14.913  0.00  0.00    -0.281 N 
ATOM     14  C   UNL     1      24.503  27.108  15.825  0.00  0.00    +0.248 C 
ATOM     30  O   UNL     1      24.240  26.538  16.874  0.00  0.00    -0.270 OA
ATOM     31  H   UNL     1      23.895  28.174  14.183  0.00  0.00    +0.155 HD
BRANCH  14  15
ATOM     15  C   UNL     1      25.949  27.350  15.538  0.00  0.00    +0.037 A 
ATOM     16  C   UNL     1      26.958  26.319  15.795  0.00  0.00    +0.013 A 
ATOM     17  C   UNL     1      28.349  26.585  15.525  0.00  0.00    +0.005 A 
ATOM     18  C   UNL     1      28.739  27.889  14.993  0.00  0.00    -0.033 A 
ATOM     28  C   UNL     1      27.717  28.892  14.743  0.00  0.00    +0.005 A 
ATOM     29  C   UNL     1      26.353  28.635  15.007  0.00  0.00    +0.013 A 
BRANCH  18  19
ATOM     19  C   UNL     1      30.202  28.267  14.695  0.00  0.00    +0.119 C 
BRANCH  19  20
ATOM     20  N   UNL     1      30.516  28.752  13.318  0.00  0.00    -0.302 NA
ATOM     21  C   UNL     1      31.237  27.688  12.485  0.00  0.00    +0.066 C 
ATOM     22  C   UNL     1      31.538  28.204  11.040  0.00  0.00    -0.064 C 
ATOM     23  N   UNL     1      32.371  29.484  11.122  0.00  0.00    +0.379 N 
ATOM     24  C   UNL     1      32.705  29.939   9.765  0.00  0.00    -0.096 C 
ATOM     25  H   UNL     1      33.326  29.232  11.639  0.00  0.00    -0.082 HD
ATOM     26  C   UNL     1      31.663  30.546  11.951  0.00  0.00    -0.064 C 
ATOM     27  C   UNL     1      31.342  30.013  13.375  0.00  0.00    +0.066 C 
ENDBRANCH  19  20
ENDBRANCH  18  19
ENDBRANCH  14  15
ENDBRANCH  12  13
TORSDOF 6
ENDMDL
MODEL 3
REMARK VINA RESULT:      -8.6      7.662     15.922
REMARK  Name = C:\Users\Docking\Desktop\test protocol\1iep_ligandH.pdb
REMARK  8 active torsions:
REMARK  status: ('A' for Active; 'I' for Inactive)
REMARK    1  A    between atoms: _5  and  _11
REMARK    2  A    between atoms: _19  and  _21
REMARK    3  A    between atoms: _22  and  _66
REMARK    4  A    between atoms: _27  and  _30
REMARK    5  A    between atoms: _32  and  _33
REMARK    6  A    between atoms: _38  and  _43
REMARK    7  A    between atoms: _43  and  _46
REMARK    8  A    between atoms: _53  and  _55
REMARK                            x       y       z     vdW  Elec       q    Type
REMARK                         _______ _______ _______ _____ _____    ______ ____
ROOT
ATOM     10  C   UNL     1      15.237  21.143  14.430  0.00  0.00    +0.038 A 
ATOM     11  C   UNL     1      14.027  21.420  13.744  0.00  0.00    +0.047 A 
ATOM     12  C   UNL     1      13.111  20.352  13.374  0.00  0.00    +0.035 A 
ATOM     32  C   UNL     1      13.457  19.014  13.721  0.00  0.00    +0.024 A 
ATOM     33  C   UNL     1      14.684  18.715  14.417  0.00  0.00    +0.007 A 
ATOM     34  C   UNL     1      15.593  19.763  14.783  0.00  0.00    -0.029 A 
ATOM     35  C   UNL     1      16.897  19.384  15.522  0.00  0.00    +0.045 C 
ENDROOT
BRANCH  10   9
ATOM      4  C   UNL     1      18.766  24.227  13.395  0.00  0.00    +0.077 A 
ATOM      5  C   UNL     1      18.966  23.653  12.095  0.00  0.00    +0.048 A 
ATOM      6  C   UNL     1      18.145  22.562  11.734  0.00  0.00    +0.116 A 
ATOM      7  N   UNL     1      17.198  22.087  12.615  0.00  0.00    -0.223 NA
ATOM      8  C   UNL     1      17.032  22.662  13.862  0.00  0.00    +0.220 A 
ATOM      9  N   UNL     1      16.080  22.207  14.761  0.00  0.00    -0.283 N 
ATOM     36  H   UNL     1      15.994  22.653  15.673  0.00  0.00    +0.155 HD
ATOM     37  N   UNL     1      17.805  23.705  14.231  0.00  0.00    -0.214 NA
BRANCH   4   3
ATOM      1  C   UNL     1      19.782  27.799  14.625  0.00  0.00    +0.020 A 
ATOM      2  C   UNL     1      18.978  26.712  14.114  0.00  0.00    +0.013 A 
ATOM      3  C   UNL     1      19.554  25.387  13.920  0.00  0.00    +0.019 A 
ATOM     38  C   UNL     1      20.956  25.193  14.255  0.00  0.00    +0.120 A 
ATOM     39  N   UNL     1      21.706  26.259  14.744  0.00  0.00    -0.263 NA
ATOM     40  C   UNL     1      21.163  27.539  14.933  0.00  0.00    +0.111 A 
ENDBRANCH   4   3
ENDBRANCH  10   9
BRANCH  12  13
ATOM     13  N   UNL     1      11.872  20.572  12.670  0.00  0.00    -0.281 N 
ATOM     14  C   UNL     1      10.614  20.794  13.207  0.00  0.00    +0.248 C 
ATOM     30  O   UNL     1      10.325  20.624  14.383  0.00  0.00    -0.270 OA
ATOM     31  H   UNL     1      11.928  20.562  11.651  0.00  0.00    +0.155 HD
BRANCH  14  15
ATOM     15  C   UNL     1       9.515  21.257  12.306  0.00  0.00    +0.037 A 
ATOM     16  C   UNL     1       9.177  20.526  11.083  0.00  0.00    +0.013 A 
ATOM     17  C   UNL     1       8.124  21.005  10.222  0.00  0.00    +0.005 A 
ATOM     18  C   UNL     1       7.400  22.221  10.585  0.00  0.00    -0.033 A 
ATOM     28  C   UNL     1       7.753  22.923  11.807  0.00  0.00    +0.005 A 
ATOM     29  C   UNL     1       8.785  22.458  12.652  0.00  0.00    +0.013 A 
BRANCH  18  19
ATOM     19  C   UNL     1       6.276  22.815   9.716  0.00  0.00    +0.119 C 
BRANCH  19  20
ATOM     20  N   UNL     1       6.612  23.151   8.300  0.00  0.00    -0.302 NA
ATOM     21  C   UNL     1       7.856  24.037   8.199  0.00  0.00    +0.066 C 
ATOM     22  C   UNL     1       8.206  24.360   6.709  0.00  0.00    -0.064 C 
ATOM     23  N   UNL     1       7.006  25.033   6.041  0.00  0.00    +0.379 N 
ATOM     24  C   UNL     1       7.352  25.390   4.657  0.00  0.00    -0.096 C 
ATOM     25  H   UNL     1       6.799  25.979   6.593  0.00  0.00    -0.082 HD
ATOM     26  C   UNL     1       5.763  24.160   6.139  0.00  0.00    -0.064 C 
ATOM     27  C   UNL     1       5.442  23.821   7.622  0.00  0.00    +0.066 C 
ENDBRANCH  19  20
ENDBRANCH  18  19
ENDBRANCH  14  15
ENDBRANCH  12  13
TORSDOF 6
ENDMDL
MODEL 4
REMARK VINA RESULT:      -8.4     13.377     18.769
REMARK  Name = C:\Users\Docking\Desktop\test protocol\1iep_ligandH.pdb
REMARK  8 active torsions:
REMARK  status: ('A' for Active; 'I' for Inactive)
REMARK    1  A    between atoms: _5  and  _11
REMARK    2  A    between atoms: _19  and  _21
REMARK    3  A    between atoms: _22  and  _66
REMARK    4  A    between atoms: _27  and  _30
REMARK    5  A    between atoms: _32  and  _33
REMARK    6  A    between atoms: _38  and  _43
REMARK    7  A    between atoms: _43  and  _46
REMARK    8  A    between atoms: _53  and  _55
REMARK                            x       y       z     vdW  Elec       q    Type
REMARK                         _______ _______ _______ _____ _____    ______ ____
ROOT
ATOM     10  C   UNL     1      10.012  27.449  20.497  0.00  0.00    +0.038 A 
ATOM     11  C   UNL     1       9.470  28.592  19.856  0.00  0.00    +0.047 A 
ATOM     12  C   UNL     1       8.601  29.515  20.570  0.00  0.00    +0.035 A 
ATOM     32  C   UNL     1       8.307  29.244  21.938  0.00  0.00    +0.024 A 
ATOM     33  C   UNL     1       8.848  28.086  22.605  0.00  0.00    +0.007 A 
ATOM     34  C   UNL     1       9.704  27.171  21.905  0.00  0.00    -0.029 A 
ATOM     35  C   UNL     1      10.251  25.943  22.669  0.00  0.00    +0.045 C 
ENDROOT
BRANCH  10   9
ATOM      4  C   UNL     1      10.704  23.777  17.485  0.00  0.00    +0.077 A 
ATOM      5  C   UNL     1       9.297  23.517  17.385  0.00  0.00    +0.048 A 
ATOM      6  C   UNL     1       8.429  24.347  18.130  0.00  0.00    +0.116 A 
ATOM      7  N   UNL     1       8.942  25.358  18.913  0.00  0.00    -0.223 NA
ATOM      8  C   UNL     1      10.304  25.581  18.989  0.00  0.00    +0.220 A 
ATOM      9  N   UNL     1      10.841  26.597  19.764  0.00  0.00    -0.283 N 
ATOM     36  H   UNL     1      11.852  26.724  19.799  0.00  0.00    +0.155 HD
ATOM     37  N   UNL     1      11.154  24.801  18.288  0.00  0.00    -0.214 NA
BRANCH   4   3
ATOM      1  C   UNL     1      13.770  22.804  15.259  0.00  0.00    +0.020 A 
ATOM      2  C   UNL     1      12.786  23.610  15.943  0.00  0.00    +0.013 A 
ATOM      3  C   UNL     1      11.748  22.989  16.756  0.00  0.00    +0.019 A 
ATOM     38  C   UNL     1      11.734  21.538  16.857  0.00  0.00    +0.120 A 
ATOM     39  N   UNL     1      12.694  20.786  16.186  0.00  0.00    -0.263 NA
ATOM     40  C   UNL     1      13.697  21.373  15.400  0.00  0.00    +0.111 A 
ENDBRANCH   4   3
ENDBRANCH  10   9
BRANCH  12  13
ATOM     13  N   UNL     1       8.016  30.687  19.969  0.00  0.00    -0.281 N 
ATOM     14  C   UNL     1       7.314  31.705  20.595  0.00  0.00    +0.248 C 
ATOM     30  O   UNL     1       6.897  31.652  21.742  0.00  0.00    -0.270 OA
ATOM     31  H   UNL     1       8.133  30.778  18.960  0.00  0.00    +0.155 HD
BRANCH  14  15
ATOM     15  C   UNL     1       7.020  32.955  19.830  0.00  0.00    +0.037 A 
ATOM     16  C   UNL     1       8.098  33.810  19.329  0.00  0.00    +0.013 A 
ATOM     17  C   UNL     1       7.787  35.020  18.609  0.00  0.00    +0.005 A 
ATOM     18  C   UNL     1       6.389  35.381  18.386  0.00  0.00    -0.033 A 
ATOM     28  C   UNL     1       5.339  34.511  18.890  0.00  0.00    +0.005 A 
ATOM     29  C   UNL     1       5.640  33.325  19.596  0.00  0.00    +0.013 A 
BRANCH  18  19
ATOM     19  C   UNL     1       5.964  36.663  17.647  0.00  0.00    +0.119 C 
BRANCH  19  20
ATOM     20  N   UNL     1       5.811  37.904  18.464  0.00  0.00    -0.302 NA
ATOM     21  C   UNL     1       5.518  37.592  19.934  0.00  0.00    +0.066 C 
ATOM     22  C   UNL     1       5.383  38.901  20.778  0.00  0.00    -0.064 C 
ATOM     23  N   UNL     1       4.282  39.778  20.181  0.00  0.00    +0.379 N 
ATOM     24  C   UNL     1       4.114  40.983  21.006  0.00  0.00    -0.096 C 
ATOM     25  H   UNL     1       3.329  39.202  20.225  0.00  0.00    -0.082 HD
ATOM     26  C   UNL     1       4.565  40.092  18.718  0.00  0.00    -0.064 C 
ATOM     27  C   UNL     1       4.726  38.784  17.894  0.00  0.00    +0.066 C 
ENDBRANCH  19  20
ENDBRANCH  18  19
ENDBRANCH  14  15
ENDBRANCH  12  13
TORSDOF 6
ENDMDL
MODEL 5
REMARK VINA RESULT:      -8.3      6.071     13.925
REMARK  Name = C:\Users\Docking\Desktop\test protocol\1iep_ligandH.pdb
REMARK  8 active torsions:
REMARK  status: ('A' for Active; 'I' for Inactive)
REMARK    1  A    between atoms: _5  and  _11
REMARK    2  A    between atoms: _19  and  _21
REMARK    3  A    between atoms: _22  and  _66
REMARK    4  A    between atoms: _27  and  _30
REMARK    5  A    between atoms: _32  and  _33
REMARK    6  A    between atoms: _38  and  _43
REMARK    7  A    between atoms: _43  and  _46
REMARK    8  A    between atoms: _53  and  _55
REMARK                            x       y       z     vdW  Elec       q    Type
REMARK                         _______ _______ _______ _____ _____    ______ ____
ROOT
ATOM     10  C   UNL     1      19.682  23.733  14.269  0.00  0.00    +0.038 A 
ATOM     11  C   UNL     1      18.443  23.865  14.946  0.00  0.00    +0.047 A 
ATOM     12  C   UNL     1      17.227  23.270  14.413  0.00  0.00    +0.035 A 
ATOM     32  C   UNL     1      17.310  22.544  13.189  0.00  0.00    +0.024 A 
ATOM     33  C   UNL     1      18.562  22.401  12.487  0.00  0.00    +0.007 A 
ATOM     34  C   UNL     1      19.764  22.988  13.007  0.00  0.00    -0.029 A 
ATOM     35  C   UNL     1      21.076  22.807  12.208  0.00  0.00    +0.045 C 
ENDROOT
BRANCH  10   9
ATOM      4  C   UNL     1      22.383  27.562  15.307  0.00  0.00    +0.077 A 
ATOM      5  C   UNL     1      21.466  28.458  14.662  0.00  0.00    +0.048 A 
ATOM      6  C   UNL     1      20.315  27.892  14.069  0.00  0.00    +0.116 A 
ATOM      7  N   UNL     1      20.107  26.530  14.124  0.00  0.00    -0.223 NA
ATOM      8  C   UNL     1      21.012  25.695  14.752  0.00  0.00    +0.220 A 
ATOM      9  N   UNL     1      20.819  24.324  14.825  0.00  0.00    -0.283 N 
ATOM     36  H   UNL     1      21.514  23.741  15.291  0.00  0.00    +0.155 HD
ATOM     37  N   UNL     1      22.119  26.211  15.324  0.00  0.00    -0.214 NA
BRANCH   4   3
ATOM      1  C   UNL     1      25.562  29.616  16.296  0.00  0.00    +0.020 A 
ATOM      2  C   UNL     1      24.349  29.229  15.613  0.00  0.00    +0.013 A 
ATOM      3  C   UNL     1      23.643  28.009  15.982  0.00  0.00    +0.019 A 
ATOM     38  C   UNL     1      24.193  27.196  17.056  0.00  0.00    +0.120 A 
ATOM     39  N   UNL     1      25.364  27.593  17.695  0.00  0.00    -0.263 NA
ATOM     40  C   UNL     1      26.053  28.764  17.348  0.00  0.00    +0.111 A 
ENDBRANCH   4   3
ENDBRANCH  10   9
BRANCH  12  13
ATOM     13  N   UNL     1      15.939  23.378  15.052  0.00  0.00    -0.281 N 
ATOM     14  C   UNL     1      15.571  22.923  16.307  0.00  0.00    +0.248 C 
ATOM     30  O   UNL     1      16.238  22.160  16.990  0.00  0.00    -0.270 OA
ATOM     31  H   UNL     1      15.211  23.847  14.514  0.00  0.00    +0.155 HD
BRANCH  14  15
ATOM     15  C   UNL     1      14.264  23.368  16.882  0.00  0.00    +0.037 A 
ATOM     16  C   UNL     1      14.178  23.919  18.236  0.00  0.00    +0.013 A 
ATOM     17  C   UNL     1      12.903  24.325  18.773  0.00  0.00    +0.005 A 
ATOM     18  C   UNL     1      11.703  24.181  17.952  0.00  0.00    -0.033 A 
ATOM     28  C   UNL     1      11.818  23.636  16.610  0.00  0.00    +0.005 A 
ATOM     29  C   UNL     1      13.066  23.236  16.081  0.00  0.00    +0.013 A 
BRANCH  18  19
ATOM     19  C   UNL     1      10.298  24.569  18.450  0.00  0.00    +0.119 C 
BRANCH  19  20
ATOM     20  N   UNL     1      10.215  25.592  19.534  0.00  0.00    -0.302 NA
ATOM     21  C   UNL     1       9.171  25.226  20.592  0.00  0.00    +0.066 C 
ATOM     22  C   UNL     1       9.113  26.296  21.730  0.00  0.00    -0.064 C 
ATOM     23  N   UNL     1       8.810  27.667  21.123  0.00  0.00    +0.379 N 
ATOM     24  C   UNL     1       8.698  28.665  22.196  0.00  0.00    -0.096 C 
ATOM     25  H   UNL     1       7.819  27.601  20.617  0.00  0.00    -0.082 HD
ATOM     26  C   UNL     1       9.842  28.038  20.068  0.00  0.00    -0.064 C 
ATOM     27  C   UNL     1       9.913  26.953  18.957  0.00  0.00    +0.066 C 
ENDBRANCH  19  20
ENDBRANCH  18  19
ENDBRANCH  14  15
ENDBRANCH  12  13
TORSDOF 6
ENDMDL
