MODEL 1
REMARK VINA RESULT:     -11.7      0.000      0.000
REMARK  Name = C:\Users\Docking\Desktop\test protocol\1iep_ligandH.pdb
REMARK  8 active torsions:
REMARK  status: ('A' for Active; 'I' for Inactive)
REMARK    1  A    between atoms: _5  and  _11
REMARK    2  A    between atoms: _19  and  _21
REMARK    3  A    between atoms: _22  and  _66
REMARK    4  A    between atoms: _27  and  _30
REMARK    5  A    between atoms: _32  and  _33
REMARK    6  A    between atoms: _38  and  _43
REMARK    7  A    between atoms: _43  and  _46
REMARK    8  A    between atoms: _53  and  _55
REMARK                            x       y       z     vdW  Elec       q    Type
REMARK                         _______ _______ _______ _____ _____    ______ ____
ROOT
ATOM     10  C   UNL     1     -24.634  -1.778 -12.837  0.00  0.00    +0.038 A 
ATOM     11  C   UNL     1     -24.953  -2.235 -11.533  0.00  0.00    +0.047 A 
ATOM     12  C   UNL     1     -26.330  -2.490 -11.141  0.00  0.00    +0.035 A 
ATOM     32  C   UNL     1     -27.358  -2.272 -12.104  0.00  0.00    +0.024 A 
ATOM     33  C   UNL     1     -27.052  -1.806 -13.434  0.00  0.00    +0.007 A 
ATOM     34  C   UNL     1     -25.696  -1.550 -13.825  0.00  0.00    -0.029 A 
ATOM     35  C   UNL     1     -25.427  -1.046 -15.262  0.00  0.00    +0.045 C 
ENDROOT
BRANCH  10   9
ATOM      4  C   UNL     1     -20.957   1.147 -13.818  0.00  0.00    +0.077 A 
ATOM      5  C   UNL     1     -21.780   2.317 -13.705  0.00  0.00    +0.048 A 
ATOM      6  C   UNL     1     -23.146   2.122 -13.400  0.00  0.00    +0.116 A 
ATOM      7  N   UNL     1     -23.641   0.848 -13.223  0.00  0.00    -0.223 NA
ATOM      8  C   UNL     1     -22.820  -0.259 -13.341  0.00  0.00    +0.220 A 
ATOM      9  N   UNL     1     -23.295  -1.549 -13.160  0.00  0.00    -0.283 N 
ATOM     36  H   UNL     1     -22.659  -2.339 -13.263  0.00  0.00    +0.155 HD
ATOM     37  N   UNL     1     -21.512  -0.099 -13.633  0.00  0.00    -0.214 NA
BRANCH   4   3
ATOM      1  C   UNL     1     -17.441   2.313 -15.074  0.00  0.00    +0.020 A 
ATOM      2  C   UNL     1     -18.858   2.322 -14.794  0.00  0.00    +0.013 A 
ATOM      3  C   UNL     1     -19.494   1.190 -14.133  0.00  0.00    +0.019 A 
ATOM     38  C   UNL     1     -18.660   0.055 -13.764  0.00  0.00    +0.120 A 
ATOM     39  N   UNL     1     -17.299   0.074 -14.048  0.00  0.00    -0.263 NA
ATOM     40  C   UNL     1     -16.676   1.158 -14.686  0.00  0.00    +0.111 A 
ENDBRANCH   4   3
ENDBRANCH  10   9
BRANCH  12  13
ATOM     13  N   UNL     1     -26.715  -2.948  -9.829  0.00  0.00    -0.281 N 
ATOM     14  C   UNL     1     -27.748  -2.479  -9.032  0.00  0.00    +0.248 C 
ATOM     30  O   UNL     1     -28.366  -1.446  -9.240  0.00  0.00    -0.270 OA
ATOM     31  H   UNL     1     -26.159  -3.709  -9.440  0.00  0.00    +0.155 HD
BRANCH  14  15
ATOM     15  C   UNL     1     -28.140  -3.264  -7.823  0.00  0.00    +0.037 A 
ATOM     16  C   UNL     1     -28.115  -2.664  -6.486  0.00  0.00    +0.013 A 
ATOM     17  C   UNL     1     -28.482  -3.449  -5.334  0.00  0.00    +0.005 A 
ATOM     18  C   UNL     1     -28.878  -4.844  -5.514  0.00  0.00    -0.033 A 
ATOM     28  C   UNL     1     -28.898  -5.412  -6.852  0.00  0.00    +0.005 A 
ATOM     29  C   UNL     1     -28.538  -4.647  -7.983  0.00  0.00    +0.013 A 
BRANCH  18  19
ATOM     19  C   UNL     1     -29.264  -5.761  -4.339  0.00  0.00    +0.119 C 
BRANCH  19  20
ATOM     20  N   UNL     1     -29.725  -7.142  -4.673  0.00  0.00    -0.302 NA
ATOM     21  C   UNL     1     -31.249  -7.272  -4.600  0.00  0.00    +0.066 C 
ATOM     22  C   UNL     1     -31.716  -8.717  -4.975  0.00  0.00    -0.064 C 
ATOM     23  N   UNL     1     -31.041  -9.725  -4.043  0.00  0.00    +0.379 N 
ATOM     24  C   UNL     1     -31.522 -11.079  -4.354  0.00  0.00    -0.096 C 
ATOM     25  H   UNL     1     -31.356  -9.485  -3.001  0.00  0.00    -0.082 HD
ATOM     26  C   UNL     1     -29.525  -9.601  -4.107  0.00  0.00    -0.064 C 
ATOM     27  C   UNL     1     -29.074  -8.154  -3.762  0.00  0.00    +0.066 C 
ENDBRANCH  19  20
ENDBRANCH  18  19
ENDBRANCH  14  15
ENDBRANCH  12  13
TORSDOF 6
ENDMDL
MODEL 2
REMARK VINA RESULT:     -11.1      3.739      6.974
REMARK  Name = C:\Users\Docking\Desktop\test protocol\1iep_ligandH.pdb
REMARK  8 active torsions:
REMARK  status: ('A' for Active; 'I' for Inactive)
REMARK    1  A    between atoms: _5  and  _11
REMARK    2  A    between atoms: _19  and  _21
REMARK    3  A    between atoms: _22  and  _66
REMARK    4  A    between atoms: _27  and  _30
REMARK    5  A    between atoms: _32  and  _33
REMARK    6  A    between atoms: _38  and  _43
REMARK    7  A    between atoms: _43  and  _46
REMARK    8  A    between atoms: _53  and  _55
REMARK                            x       y       z     vdW  Elec       q    Type
REMARK                         _______ _______ _______ _____ _____    ______ ____
ROOT
ATOM     10  C   UNL     1     -27.998  -3.301  -7.668  0.00  0.00    +0.038 A 
ATOM     11  C   UNL     1     -28.563  -4.566  -7.973  0.00  0.00    +0.047 A 
ATOM     12  C   UNL     1     -29.779  -5.024  -7.320  0.00  0.00    +0.035 A 
ATOM     32  C   UNL     1     -30.395  -4.167  -6.362  0.00  0.00    +0.024 A 
ATOM     33  C   UNL     1     -29.834  -2.879  -6.038  0.00  0.00    +0.007 A 
ATOM     34  C   UNL     1     -28.633  -2.423  -6.678  0.00  0.00    -0.029 A 
ATOM     35  C   UNL     1     -28.072  -1.036  -6.287  0.00  0.00    +0.045 C 
ENDROOT
BRANCH  10   9
ATOM      4  C   UNL     1     -25.670  -1.546 -11.480  0.00  0.00    +0.077 A 
ATOM      5  C   UNL     1     -26.882  -1.420 -12.237  0.00  0.00    +0.048 A 
ATOM      6  C   UNL     1     -28.083  -1.824 -11.610  0.00  0.00    +0.116 A 
ATOM      7  N   UNL     1     -28.060  -2.316 -10.324  0.00  0.00    -0.223 NA
ATOM      8  C   UNL     1     -26.873  -2.427  -9.623  0.00  0.00    +0.220 A 
ATOM      9  N   UNL     1     -26.828  -2.912  -8.325  0.00  0.00    -0.283 N 
ATOM     36  H   UNL     1     -25.932  -2.985  -7.845  0.00  0.00    +0.155 HD
ATOM     37  N   UNL     1     -25.713  -2.049 -10.199  0.00  0.00    -0.214 NA
BRANCH   4   3
ATOM      1  C   UNL     1     -21.826  -1.469 -12.202  0.00  0.00    +0.020 A 
ATOM      2  C   UNL     1     -23.103  -1.885 -11.670  0.00  0.00    +0.013 A 
ATOM      3  C   UNL     1     -24.322  -1.158 -12.003  0.00  0.00    +0.019 A 
ATOM     38  C   UNL     1     -24.212  -0.006 -12.885  0.00  0.00    +0.120 A 
ATOM     39  N   UNL     1     -22.969   0.372 -13.381  0.00  0.00    -0.263 NA
ATOM     40  C   UNL     1     -21.789  -0.319 -13.066  0.00  0.00    +0.111 A 
ENDBRANCH   4   3
ENDBRANCH  10   9
BRANCH  12  13
ATOM     13  N   UNL     1     -30.395  -6.301  -7.584  0.00  0.00    -0.281 N 
ATOM     14  C   UNL     1     -29.772  -7.522  -7.779  0.00  0.00    +0.248 C 
ATOM     30  O   UNL     1     -28.573  -7.664  -7.969  0.00  0.00    -0.270 OA
ATOM     31  H   UNL     1     -31.414  -6.304  -7.632  0.00  0.00    +0.155 HD
BRANCH  14  15
ATOM     15  C   UNL     1     -30.603  -8.765  -7.777  0.00  0.00    +0.037 A 
ATOM     16  C   UNL     1     -30.187  -9.958  -8.519  0.00  0.00    +0.013 A 
ATOM     17  C   UNL     1     -31.015 -11.138  -8.514  0.00  0.00    +0.005 A 
ATOM     18  C   UNL     1     -32.268 -11.130  -7.762  0.00  0.00    -0.033 A 
ATOM     28  C   UNL     1     -32.654  -9.935  -7.031  0.00  0.00    +0.005 A 
ATOM     29  C   UNL     1     -31.845  -8.776  -7.034  0.00  0.00    +0.013 A 
BRANCH  18  19
ATOM     19  C   UNL     1     -33.224 -12.337  -7.719  0.00  0.00    +0.119 C 
BRANCH  19  20
ATOM     20  N   UNL     1     -32.879 -13.514  -8.570  0.00  0.00    -0.302 NA
ATOM     21  C   UNL     1     -34.125 -14.279  -9.025  0.00  0.00    +0.066 C 
ATOM     22  C   UNL     1     -33.748 -15.494  -9.933  0.00  0.00    -0.064 C 
ATOM     23  N   UNL     1     -32.792 -16.417  -9.175  0.00  0.00    +0.379 N 
ATOM     24  C   UNL     1     -32.481 -17.590 -10.005  0.00  0.00    -0.096 C 
ATOM     25  H   UNL     1     -33.324 -16.778  -8.264  0.00  0.00    -0.082 HD
ATOM     26  C   UNL     1     -31.552 -15.663  -8.717  0.00  0.00    -0.064 C 
ATOM     27  C   UNL     1     -31.940 -14.441  -7.839  0.00  0.00    +0.066 C 
ENDBRANCH  19  20
ENDBRANCH  18  19
ENDBRANCH  14  15
ENDBRANCH  12  13
TORSDOF 6
ENDMDL
MODEL 3
REMARK VINA RESULT:     -11.0      2.919      6.515
REMARK  Name = C:\Users\Docking\Desktop\test protocol\1iep_ligandH.pdb
REMARK  8 active torsions:
REMARK  status: ('A' for Active; 'I' for Inactive)
REMARK    1  A    between atoms: _5  and  _11
REMARK    2  A    between atoms: _19  and  _21
REMARK    3  A    between atoms: _22  and  _66
REMARK    4  A    between atoms: _27  and  _30
REMARK    5  A    between atoms: _32  and  _33
REMARK    6  A    between atoms: _38  and  _43
REMARK    7  A    between atoms: _43  and  _46
REMARK    8  A    between atoms: _53  and  _55
REMARK                            x       y       z     vdW  Elec       q    Type
REMARK                         _______ _______ _______ _____ _____    ______ ____
ROOT
ATOM     10  C   UNL     1     -27.952  -3.206  -7.677  0.00  0.00    +0.038 A 
ATOM     11  C   UNL     1     -28.521  -4.471  -7.974  0.00  0.00    +0.047 A 
ATOM     12  C   UNL     1     -29.736  -4.922  -7.313  0.00  0.00    +0.035 A 
ATOM     32  C   UNL     1     -30.346  -4.059  -6.357  0.00  0.00    +0.024 A 
ATOM     33  C   UNL     1     -29.780  -2.771  -6.043  0.00  0.00    +0.007 A 
ATOM     34  C   UNL     1     -28.580  -2.321  -6.689  0.00  0.00    -0.029 A 
ATOM     35  C   UNL     1     -28.014  -0.933  -6.308  0.00  0.00    +0.045 C 
ENDROOT
BRANCH  10   9
ATOM      4  C   UNL     1     -25.632  -1.498 -11.516  0.00  0.00    +0.077 A 
ATOM      5  C   UNL     1     -26.846  -1.384 -12.272  0.00  0.00    +0.048 A 
ATOM      6  C   UNL     1     -28.045  -1.782 -11.639  0.00  0.00    +0.116 A 
ATOM      7  N   UNL     1     -28.020  -2.257 -10.346  0.00  0.00    -0.223 NA
ATOM      8  C   UNL     1     -26.832  -2.356  -9.645  0.00  0.00    +0.220 A 
ATOM      9  N   UNL     1     -26.784  -2.823  -8.341  0.00  0.00    -0.283 N 
ATOM     36  H   UNL     1     -25.887  -2.888  -7.861  0.00  0.00    +0.155 HD
ATOM     37  N   UNL     1     -25.673  -1.983 -10.228  0.00  0.00    -0.214 NA
BRANCH   4   3
ATOM      1  C   UNL     1     -21.783  -1.390 -12.204  0.00  0.00    +0.020 A 
ATOM      2  C   UNL     1     -23.058  -1.800 -11.663  0.00  0.00    +0.013 A 
ATOM      3  C   UNL     1     -24.286  -1.114 -12.046  0.00  0.00    +0.019 A 
ATOM     38  C   UNL     1     -24.187  -0.008 -12.986  0.00  0.00    +0.120 A 
ATOM     39  N   UNL     1     -22.945   0.366 -13.490  0.00  0.00    -0.263 NA
ATOM     40  C   UNL     1     -21.757  -0.286 -13.127  0.00  0.00    +0.111 A 
ENDBRANCH   4   3
ENDBRANCH  10   9
BRANCH  12  13
ATOM     13  N   UNL     1     -30.356  -6.199  -7.568  0.00  0.00    -0.281 N 
ATOM     14  C   UNL     1     -29.781  -7.456  -7.488  0.00  0.00    +0.248 C 
ATOM     30  O   UNL     1     -28.580  -7.662  -7.391  0.00  0.00    -0.270 OA
ATOM     31  H   UNL     1     -31.339  -6.172  -7.840  0.00  0.00    +0.155 HD
BRANCH  14  15
ATOM     15  C   UNL     1     -30.665  -8.660  -7.536  0.00  0.00    +0.037 A 
ATOM     16  C   UNL     1     -32.074  -8.584  -7.139  0.00  0.00    +0.013 A 
ATOM     17  C   UNL     1     -32.901  -9.764  -7.179  0.00  0.00    +0.005 A 
ATOM     18  C   UNL     1     -32.321 -11.031  -7.620  0.00  0.00    -0.033 A 
ATOM     28  C   UNL     1     -30.922 -11.076  -8.013  0.00  0.00    +0.005 A 
ATOM     29  C   UNL     1     -30.108  -9.922  -7.974  0.00  0.00    +0.013 A 
BRANCH  18  19
ATOM     19  C   UNL     1     -33.123 -12.344  -7.674  0.00  0.00    +0.119 C 
BRANCH  19  20
ATOM     20  N   UNL     1     -33.047 -13.242  -6.483  0.00  0.00    -0.302 NA
ATOM     21  C   UNL     1     -33.865 -14.522  -6.674  0.00  0.00    +0.066 C 
ATOM     22  C   UNL     1     -33.756 -15.459  -5.428  0.00  0.00    -0.064 C 
ATOM     23  N   UNL     1     -34.218 -14.702  -4.182  0.00  0.00    +0.379 N 
ATOM     24  C   UNL     1     -34.172 -15.599  -3.018  0.00  0.00    -0.096 C 
ATOM     25  H   UNL     1     -35.282 -14.408  -4.340  0.00  0.00    -0.082 HD
ATOM     26  C   UNL     1     -33.411 -13.426  -3.985  0.00  0.00    -0.064 C 
ATOM     27  C   UNL     1     -33.503 -12.515  -5.241  0.00  0.00    +0.066 C 
ENDBRANCH  19  20
ENDBRANCH  18  19
ENDBRANCH  14  15
ENDBRANCH  12  13
TORSDOF 6
ENDMDL
MODEL 4
REMARK VINA RESULT:     -10.2      1.654     13.621
REMARK  Name = C:\Users\Docking\Desktop\test protocol\1iep_ligandH.pdb
REMARK  8 active torsions:
REMARK  status: ('A' for Active; 'I' for Inactive)
REMARK    1  A    between atoms: _5  and  _11
REMARK    2  A    between atoms: _19  and  _21
REMARK    3  A    between atoms: _22  and  _66
REMARK    4  A    between atoms: _27  and  _30
REMARK    5  A    between atoms: _32  and  _33
REMARK    6  A    between atoms: _38  and  _43
REMARK    7  A    between atoms: _43  and  _46
REMARK    8  A    between atoms: _53  and  _55
REMARK                            x       y       z     vdW  Elec       q    Type
REMARK                         _______ _______ _______ _____ _____    ______ ____
ROOT
ATOM     10  C   UNL     1     -28.687  -4.582  -4.511  0.00  0.00    +0.038 A 
ATOM     11  C   UNL     1     -28.031  -4.335  -5.745  0.00  0.00    +0.047 A 
ATOM     12  C   UNL     1     -28.086  -3.026  -6.376  0.00  0.00    +0.035 A 
ATOM     32  C   UNL     1     -28.815  -1.990  -5.723  0.00  0.00    +0.024 A 
ATOM     33  C   UNL     1     -29.489  -2.224  -4.470  0.00  0.00    +0.007 A 
ATOM     34  C   UNL     1     -29.440  -3.514  -3.843  0.00  0.00    -0.029 A 
ATOM     35  C   UNL     1     -30.186  -3.710  -2.503  0.00  0.00    +0.045 C 
ENDROOT
BRANCH  10   9
ATOM      4  C   UNL     1     -30.297  -9.065  -3.925  0.00  0.00    +0.077 A 
ATOM      5  C   UNL     1     -31.419  -8.839  -4.791  0.00  0.00    +0.048 A 
ATOM      6  C   UNL     1     -31.549  -7.553  -5.361  0.00  0.00    +0.116 A 
ATOM      7  N   UNL     1     -30.620  -6.574  -5.080  0.00  0.00    -0.223 NA
ATOM      8  C   UNL     1     -29.551  -6.825  -4.240  0.00  0.00    +0.220 A 
ATOM      9  N   UNL     1     -28.602  -5.858  -3.949  0.00  0.00    -0.283 N 
ATOM     36  H   UNL     1     -27.832  -6.080  -3.319  0.00  0.00    +0.155 HD
ATOM     37  N   UNL     1     -29.406  -8.045  -3.681  0.00  0.00    -0.214 NA
BRANCH   4   3
ATOM      1  C   UNL     1     -28.465 -12.173  -2.415  0.00  0.00    +0.020 A 
ATOM      2  C   UNL     1     -28.676 -10.906  -3.075  0.00  0.00    +0.013 A 
ATOM      3  C   UNL     1     -30.022 -10.373  -3.250  0.00  0.00    +0.019 A 
ATOM     38  C   UNL     1     -31.139 -11.153  -2.740  0.00  0.00    +0.120 A 
ATOM     39  N   UNL     1     -30.905 -12.371  -2.110  0.00  0.00    -0.263 NA
ATOM     40  C   UNL     1     -29.615 -12.895  -1.938  0.00  0.00    +0.111 A 
ENDBRANCH   4   3
ENDBRANCH  10   9
BRANCH  12  13
ATOM     13  N   UNL     1     -27.447  -2.718  -7.632  0.00  0.00    -0.281 N 
ATOM     14  C   UNL     1     -27.960  -2.873  -8.909  0.00  0.00    +0.248 C 
ATOM     30  O   UNL     1     -28.972  -3.503  -9.176  0.00  0.00    -0.270 OA
ATOM     31  H   UNL     1     -26.501  -2.340  -7.571  0.00  0.00    +0.155 HD
BRANCH  14  15
ATOM     15  C   UNL     1     -27.235  -2.249 -10.059  0.00  0.00    +0.037 A 
ATOM     16  C   UNL     1     -27.856  -2.145 -11.382  0.00  0.00    +0.013 A 
ATOM     17  C   UNL     1     -27.129  -1.555 -12.477  0.00  0.00    +0.005 A 
ATOM     18  C   UNL     1     -25.772  -1.062 -12.253  0.00  0.00    -0.033 A 
ATOM     28  C   UNL     1     -25.183  -1.173 -10.930  0.00  0.00    +0.005 A 
ATOM     29  C   UNL     1     -25.892  -1.752  -9.854  0.00  0.00    +0.013 A 
BRANCH  18  19
ATOM     19  C   UNL     1     -24.915  -0.437 -13.370  0.00  0.00    +0.119 C 
BRANCH  19  20
ATOM     20  N   UNL     1     -23.473  -0.193 -13.069  0.00  0.00    -0.302 NA
ATOM     21  C   UNL     1     -22.866   0.870 -13.989  0.00  0.00    +0.066 C 
ATOM     22  C   UNL     1     -21.363   1.129 -13.645  0.00  0.00    -0.064 C 
ATOM     23  N   UNL     1     -20.585  -0.184 -13.748  0.00  0.00    +0.379 N 
ATOM     24  C   UNL     1     -19.161   0.067 -13.483  0.00  0.00    -0.096 C 
ATOM     25  H   UNL     1     -20.675  -0.548 -14.798  0.00  0.00    -0.082 HD
ATOM     26  C   UNL     1     -21.184  -1.247 -12.839  0.00  0.00    -0.064 C 
ATOM     27  C   UNL     1     -22.685  -1.476 -13.169  0.00  0.00    +0.066 C 
ENDBRANCH  19  20
ENDBRANCH  18  19
ENDBRANCH  14  15
ENDBRANCH  12  13
TORSDOF 6
ENDMDL
MODEL 5
REMARK VINA RESULT:     -10.2      2.446     13.101
REMARK  Name = C:\Users\Docking\Desktop\test protocol\1iep_ligandH.pdb
REMARK  8 active torsions:
REMARK  status: ('A' for Active; 'I' for Inactive)
REMARK    1  A    between atoms: _5  and  _11
REMARK    2  A    between atoms: _19  and  _21
REMARK    3  A    between atoms: _22  and  _66
REMARK    4  A    between atoms: _27  and  _30
REMARK    5  A    between atoms: _32  and  _33
REMARK    6  A    between atoms: _38  and  _43
REMARK    7  A    between atoms: _43  and  _46
REMARK    8  A    between atoms: _53  and  _55
REMARK                            x       y       z     vdW  Elec       q    Type
REMARK                         _______ _______ _______ _____ _____    ______ ____
ROOT
ATOM     10  C   UNL     1     -29.186  -4.332  -7.291  0.00  0.00    +0.038 A 
ATOM     11  C   UNL     1     -28.355  -3.983  -8.386  0.00  0.00    +0.047 A 
ATOM     12  C   UNL     1     -27.545  -2.775  -8.362  0.00  0.00    +0.035 A 
ATOM     32  C   UNL     1     -27.604  -1.946  -7.204  0.00  0.00    +0.024 A 
ATOM     33  C   UNL     1     -28.443  -2.285  -6.082  0.00  0.00    +0.007 A 
ATOM     34  C   UNL     1     -29.246  -3.474  -6.102  0.00  0.00    -0.029 A 
ATOM     35  C   UNL     1     -30.133  -3.784  -4.873  0.00  0.00    +0.045 C 
ENDROOT
BRANCH  10   9
ATOM      4  C   UNL     1     -29.629  -9.036  -8.137  0.00  0.00    +0.077 A 
ATOM      5  C   UNL     1     -28.243  -9.165  -8.480  0.00  0.00    +0.048 A 
ATOM      6  C   UNL     1     -27.451  -7.996  -8.433  0.00  0.00    +0.116 A 
ATOM      7  N   UNL     1     -28.015  -6.792  -8.069  0.00  0.00    -0.223 NA
ATOM      8  C   UNL     1     -29.356  -6.702  -7.745  0.00  0.00    +0.220 A 
ATOM      9  N   UNL     1     -29.942  -5.504  -7.368  0.00  0.00    -0.283 N 
ATOM     36  H   UNL     1     -30.937  -5.477  -7.144  0.00  0.00    +0.155 HD
ATOM     37  N   UNL     1     -30.134  -7.804  -7.783  0.00  0.00    -0.214 NA
BRANCH   4   3
ATOM      1  C   UNL     1     -32.796 -11.249  -7.523  0.00  0.00    +0.020 A 
ATOM      2  C   UNL     1     -31.901 -10.115  -7.494  0.00  0.00    +0.013 A 
ATOM      3  C   UNL     1     -30.594 -10.181  -8.135  0.00  0.00    +0.019 A 
ATOM     38  C   UNL     1     -30.220 -11.419  -8.802  0.00  0.00    +0.120 A 
ATOM     39  N   UNL     1     -31.101 -12.496  -8.812  0.00  0.00    -0.263 NA
ATOM     40  C   UNL     1     -32.361 -12.444  -8.197  0.00  0.00    +0.111 A 
ENDBRANCH   4   3
ENDBRANCH  10   9
BRANCH  12  13
ATOM     13  N   UNL     1     -26.689  -2.366  -9.448  0.00  0.00    -0.281 N 
ATOM     14  C   UNL     1     -27.025  -2.201 -10.781  0.00  0.00    +0.248 C 
ATOM     30  O   UNL     1     -28.068  -2.590 -11.284  0.00  0.00    -0.270 OA
ATOM     31  H   UNL     1     -25.717  -2.174  -9.203  0.00  0.00    +0.155 HD
BRANCH  14  15
ATOM     15  C   UNL     1     -26.055  -1.520 -11.691  0.00  0.00    +0.037 A 
ATOM     16  C   UNL     1     -26.069  -1.762 -13.136  0.00  0.00    +0.013 A 
ATOM     17  C   UNL     1     -25.111  -1.104 -13.989  0.00  0.00    +0.005 A 
ATOM     18  C   UNL     1     -24.131  -0.196 -13.399  0.00  0.00    -0.033 A 
ATOM     28  C   UNL     1     -24.142   0.030 -11.963  0.00  0.00    +0.005 A 
ATOM     29  C   UNL     1     -25.079  -0.614 -11.124  0.00  0.00    +0.013 A 
BRANCH  18  19
ATOM     19  C   UNL     1     -23.058   0.532 -14.230  0.00  0.00    +0.119 C 
BRANCH  19  20
ATOM     20  N   UNL     1     -21.675   0.583 -13.668  0.00  0.00    -0.302 NA
ATOM     21  C   UNL     1     -20.830   1.679 -14.322  0.00  0.00    +0.066 C 
ATOM     22  C   UNL     1     -19.393   1.733 -13.707  0.00  0.00    -0.064 C 
ATOM     23  N   UNL     1     -18.723   0.367 -13.862  0.00  0.00    +0.379 N 
ATOM     24  C   UNL     1     -17.352   0.431 -13.337  0.00  0.00    -0.096 C 
ATOM     25  H   UNL     1     -18.658   0.144 -14.953  0.00  0.00    -0.082 HD
ATOM     26  C   UNL     1     -19.559  -0.729 -13.217  0.00  0.00    -0.064 C 
ATOM     27  C   UNL     1     -20.994  -0.755 -13.815  0.00  0.00    +0.066 C 
ENDBRANCH  19  20
ENDBRANCH  18  19
ENDBRANCH  14  15
ENDBRANCH  12  13
TORSDOF 6
ENDMDL
