MODEL 1
REMARK VINA RESULT:     -10.4      0.000      0.000
REMARK  Name = C:\Users\Docking\Desktop\test protocol\1iep_ligandH.pdb
REMARK  8 active torsions:
REMARK  status: ('A' for Active; 'I' for Inactive)
REMARK    1  A    between atoms: _5  and  _11
REMARK    2  A    between atoms: _19  and  _21
REMARK    3  A    between atoms: _22  and  _66
REMARK    4  A    between atoms: _27  and  _30
REMARK    5  A    between atoms: _32  and  _33
REMARK    6  A    between atoms: _38  and  _43
REMARK    7  A    between atoms: _43  and  _46
REMARK    8  A    between atoms: _53  and  _55
REMARK                            x       y       z     vdW  Elec       q    Type
REMARK                         _______ _______ _______ _____ _____    ______ ____
ROOT
ATOM     10  C   UNL     1      -0.966  12.570 -33.168  0.00  0.00    +0.038 A 
ATOM     11  C   UNL     1      -1.447  11.396 -32.534  0.00  0.00    +0.047 A 
ATOM     12  C   UNL     1      -1.814  10.220 -33.307  0.00  0.00    +0.035 A 
ATOM     32  C   UNL     1      -1.677  10.274 -34.725  0.00  0.00    +0.024 A 
ATOM     33  C   UNL     1      -1.192  11.459 -35.386  0.00  0.00    +0.007 A 
ATOM     34  C   UNL     1      -0.830  12.623 -34.629  0.00  0.00    -0.029 A 
ATOM     35  C   UNL     1      -0.321  13.869 -35.391  0.00  0.00    +0.045 C 
ENDROOT
BRANCH  10   9
ATOM      4  C   UNL     1      -1.958  16.835 -31.202  0.00  0.00    +0.077 A 
ATOM      5  C   UNL     1      -3.250  16.888 -31.824  0.00  0.00    +0.048 A 
ATOM      6  C   UNL     1      -3.617  15.801 -32.649  0.00  0.00    +0.116 A 
ATOM      7  N   UNL     1      -2.751  14.745 -32.830  0.00  0.00    -0.223 NA
ATOM      8  C   UNL     1      -1.512  14.726 -32.216  0.00  0.00    +0.220 A 
ATOM      9  N   UNL     1      -0.628  13.670 -32.377  0.00  0.00    -0.283 N 
ATOM     36  H   UNL     1       0.280  13.697 -31.913  0.00  0.00    +0.155 HD
ATOM     37  N   UNL     1      -1.137  15.752 -31.425  0.00  0.00    -0.214 NA
BRANCH   4   3
ATOM      1  C   UNL     1      -1.584  20.152 -29.163  0.00  0.00    +0.020 A 
ATOM      2  C   UNL     1      -2.140  19.150 -30.043  0.00  0.00    +0.013 A 
ATOM      3  C   UNL     1      -1.428  17.905 -30.300  0.00  0.00    +0.019 A 
ATOM     38  C   UNL     1      -0.144  17.703 -29.644  0.00  0.00    +0.120 A 
ATOM     39  N   UNL     1       0.367  18.686 -28.803  0.00  0.00    -0.263 NA
ATOM     40  C   UNL     1      -0.309  19.888 -28.550  0.00  0.00    +0.111 A 
ENDBRANCH   4   3
ENDBRANCH  10   9
BRANCH  12  13
ATOM     13  N   UNL     1      -2.316   9.003 -32.719  0.00  0.00    -0.281 N 
ATOM     14  C   UNL     1      -3.564   8.426 -32.889  0.00  0.00    +0.248 C 
ATOM     30  O   UNL     1      -4.519   8.985 -33.408  0.00  0.00    -0.270 OA
ATOM     31  H   UNL     1      -1.672   8.506 -32.103  0.00  0.00    +0.155 HD
BRANCH  14  15
ATOM     15  C   UNL     1      -3.788   7.032 -32.399  0.00  0.00    +0.037 A 
ATOM     16  C   UNL     1      -4.871   6.719 -31.464  0.00  0.00    +0.013 A 
ATOM     17  C   UNL     1      -5.054   5.369 -30.994  0.00  0.00    +0.005 A 
ATOM     18  C   UNL     1      -4.151   4.320 -31.461  0.00  0.00    -0.033 A 
ATOM     28  C   UNL     1      -3.088   4.656 -32.393  0.00  0.00    +0.005 A 
ATOM     29  C   UNL     1      -2.905   5.979 -32.855  0.00  0.00    +0.013 A 
BRANCH  18  19
ATOM     19  C   UNL     1      -4.260   2.855 -30.996  0.00  0.00    +0.119 C 
BRANCH  19  20
ATOM     20  N   UNL     1      -3.232   1.899 -31.504  0.00  0.00    -0.302 NA
ATOM     21  C   UNL     1      -3.812   0.500 -31.732  0.00  0.00    +0.066 C 
ATOM     22  C   UNL     1      -2.730  -0.482 -32.286  0.00  0.00    -0.064 C 
ATOM     23  N   UNL     1      -1.550  -0.537 -31.314  0.00  0.00    +0.379 N 
ATOM     24  C   UNL     1      -0.556  -1.504 -31.803  0.00  0.00    -0.096 C 
ATOM     25  H   UNL     1      -1.934  -0.912 -30.337  0.00  0.00    -0.082 HD
ATOM     26  C   UNL     1      -0.969   0.850 -31.079  0.00  0.00    -0.064 C 
ATOM     27  C   UNL     1      -2.060   1.826 -30.557  0.00  0.00    +0.066 C 
ENDBRANCH  19  20
ENDBRANCH  18  19
ENDBRANCH  14  15
ENDBRANCH  12  13
TORSDOF 6
ENDMDL
MODEL 2
REMARK VINA RESULT:     -10.0      2.420     13.520
REMARK  Name = C:\Users\Docking\Desktop\test protocol\1iep_ligandH.pdb
REMARK  8 active torsions:
REMARK  status: ('A' for Active; 'I' for Inactive)
REMARK    1  A    between atoms: _5  and  _11
REMARK    2  A    between atoms: _19  and  _21
REMARK    3  A    between atoms: _22  and  _66
REMARK    4  A    between atoms: _27  and  _30
REMARK    5  A    between atoms: _32  and  _33
REMARK    6  A    between atoms: _38  and  _43
REMARK    7  A    between atoms: _43  and  _46
REMARK    8  A    between atoms: _53  and  _55
REMARK                            x       y       z     vdW  Elec       q    Type
REMARK                         _______ _______ _______ _____ _____    ______ ____
ROOT
ATOM     10  C   UNL     1      -0.850  10.950 -33.537  0.00  0.00    +0.038 A 
ATOM     11  C   UNL     1      -0.911  11.794 -32.399  0.00  0.00    +0.047 A 
ATOM     12  C   UNL     1      -0.890  13.242 -32.534  0.00  0.00    +0.035 A 
ATOM     32  C   UNL     1      -0.811  13.798 -33.844  0.00  0.00    +0.024 A 
ATOM     33  C   UNL     1      -0.747  12.955 -35.012  0.00  0.00    +0.007 A 
ATOM     34  C   UNL     1      -0.764  11.525 -34.885  0.00  0.00    -0.029 A 
ATOM     35  C   UNL     1      -0.688  10.670 -36.171  0.00  0.00    +0.045 C 
ENDROOT
BRANCH  10   9
ATOM      4  C   UNL     1      -3.168   6.828 -32.719  0.00  0.00    +0.077 A 
ATOM      5  C   UNL     1      -4.438   7.490 -32.632  0.00  0.00    +0.048 A 
ATOM      6  C   UNL     1      -4.450   8.893 -32.797  0.00  0.00    +0.116 A 
ATOM      7  N   UNL     1      -3.274   9.573 -33.030  0.00  0.00    -0.223 NA
ATOM      8  C   UNL     1      -2.067   8.904 -33.107  0.00  0.00    +0.220 A 
ATOM      9  N   UNL     1      -0.873   9.566 -33.349  0.00  0.00    -0.283 N 
ATOM     36  H   UNL     1      -0.002   9.038 -33.391  0.00  0.00    +0.155 HD
ATOM     37  N   UNL     1      -2.028   7.564 -32.952  0.00  0.00    -0.214 NA
BRANCH   4   3
ATOM      1  C   UNL     1      -1.859   3.164 -33.126  0.00  0.00    +0.020 A 
ATOM      2  C   UNL     1      -1.988   4.592 -33.307  0.00  0.00    +0.013 A 
ATOM      3  C   UNL     1      -2.992   5.348 -32.571  0.00  0.00    +0.019 A 
ATOM     38  C   UNL     1      -3.858   4.624 -31.651  0.00  0.00    +0.120 A 
ATOM     39  N   UNL     1      -3.712   3.249 -31.499  0.00  0.00    -0.263 NA
ATOM     40  C   UNL     1      -2.749   2.510 -32.204  0.00  0.00    +0.111 A 
ENDBRANCH   4   3
ENDBRANCH  10   9
BRANCH  12  13
ATOM     13  N   UNL     1      -0.941  14.150 -31.414  0.00  0.00    -0.281 N 
ATOM     14  C   UNL     1       0.096  14.531 -30.579  0.00  0.00    +0.248 C 
ATOM     30  O   UNL     1       1.187  13.982 -30.538  0.00  0.00    -0.270 OA
ATOM     31  H   UNL     1      -1.853  14.560 -31.212  0.00  0.00    +0.155 HD
BRANCH  14  15
ATOM     15  C   UNL     1      -0.113  15.680 -29.646  0.00  0.00    +0.037 A 
ATOM     16  C   UNL     1      -0.494  15.463 -28.248  0.00  0.00    +0.013 A 
ATOM     17  C   UNL     1      -0.706  16.589 -27.373  0.00  0.00    +0.005 A 
ATOM     18  C   UNL     1      -0.536  17.943 -27.895  0.00  0.00    -0.033 A 
ATOM     28  C   UNL     1      -0.152  18.129 -29.284  0.00  0.00    +0.005 A 
ATOM     29  C   UNL     1       0.056  17.028 -30.145  0.00  0.00    +0.013 A 
BRANCH  18  19
ATOM     19  C   UNL     1      -0.762  19.203 -27.039  0.00  0.00    +0.119 C 
BRANCH  19  20
ATOM     20  N   UNL     1      -0.931  20.499 -27.762  0.00  0.00    -0.302 NA
ATOM     21  C   UNL     1      -0.454  21.690 -26.926  0.00  0.00    +0.066 C 
ATOM     22  C   UNL     1      -0.617  23.035 -27.705  0.00  0.00    -0.064 C 
ATOM     23  N   UNL     1      -2.081  23.211 -28.112  0.00  0.00    +0.379 N 
ATOM     24  C   UNL     1      -2.249  24.502 -28.794  0.00  0.00    -0.096 C 
ATOM     25  H   UNL     1      -2.690  23.240 -27.178  0.00  0.00    -0.082 HD
ATOM     26  C   UNL     1      -2.565  22.030 -28.941  0.00  0.00    -0.064 C 
ATOM     27  C   UNL     1      -2.371  20.695 -28.168  0.00  0.00    +0.066 C 
ENDBRANCH  19  20
ENDBRANCH  18  19
ENDBRANCH  14  15
ENDBRANCH  12  13
TORSDOF 6
ENDMDL
MODEL 3
REMARK VINA RESULT:      -9.8      2.884     13.259
REMARK  Name = C:\Users\Docking\Desktop\test protocol\1iep_ligandH.pdb
REMARK  8 active torsions:
REMARK  status: ('A' for Active; 'I' for Inactive)
REMARK    1  A    between atoms: _5  and  _11
REMARK    2  A    between atoms: _19  and  _21
REMARK    3  A    between atoms: _22  and  _66
REMARK    4  A    between atoms: _27  and  _30
REMARK    5  A    between atoms: _32  and  _33
REMARK    6  A    between atoms: _38  and  _43
REMARK    7  A    between atoms: _43  and  _46
REMARK    8  A    between atoms: _53  and  _55
REMARK                            x       y       z     vdW  Elec       q    Type
REMARK                         _______ _______ _______ _____ _____    ______ ____
ROOT
ATOM     10  C   UNL     1      -0.911  10.953 -33.141  0.00  0.00    +0.038 A 
ATOM     11  C   UNL     1      -1.002  11.670 -31.921  0.00  0.00    +0.047 A 
ATOM     12  C   UNL     1      -1.043  13.124 -31.903  0.00  0.00    +0.035 A 
ATOM     32  C   UNL     1      -0.991  13.816 -33.148  0.00  0.00    +0.024 A 
ATOM     33  C   UNL     1      -0.897  13.103 -34.398  0.00  0.00    +0.007 A 
ATOM     34  C   UNL     1      -0.854  11.669 -34.421  0.00  0.00    -0.029 A 
ATOM     35  C   UNL     1      -0.746  10.957 -35.790  0.00  0.00    +0.045 C 
ENDROOT
BRANCH  10   9
ATOM      4  C   UNL     1      -3.052   6.675 -32.756  0.00  0.00    +0.077 A 
ATOM      5  C   UNL     1      -4.347   7.271 -32.599  0.00  0.00    +0.048 A 
ATOM      6  C   UNL     1      -4.418   8.682 -32.615  0.00  0.00    +0.116 A 
ATOM      7  N   UNL     1      -3.273   9.431 -32.778  0.00  0.00    -0.223 NA
ATOM      8  C   UNL     1      -2.039   8.824 -32.926  0.00  0.00    +0.220 A 
ATOM      9  N   UNL     1      -0.875   9.558 -33.099  0.00  0.00    -0.283 N 
ATOM     36  H   UNL     1       0.016   9.073 -33.197  0.00  0.00    +0.155 HD
ATOM     37  N   UNL     1      -1.945   7.478 -32.912  0.00  0.00    -0.214 NA
BRANCH   4   3
ATOM      1  C   UNL     1      -1.541   3.140 -33.480  0.00  0.00    +0.020 A 
ATOM      2  C   UNL     1      -1.727   4.572 -33.507  0.00  0.00    +0.013 A 
ATOM      3  C   UNL     1      -2.814   5.197 -32.763  0.00  0.00    +0.019 A 
ATOM     38  C   UNL     1      -3.702   4.336 -31.995  0.00  0.00    +0.120 A 
ATOM     39  N   UNL     1      -3.499   2.960 -31.989  0.00  0.00    -0.263 NA
ATOM     40  C   UNL     1      -2.458   2.348 -32.703  0.00  0.00    +0.111 A 
ENDBRANCH   4   3
ENDBRANCH  10   9
BRANCH  12  13
ATOM     13  N   UNL     1      -1.127  13.907 -30.695  0.00  0.00    -0.281 N 
ATOM     14  C   UNL     1      -0.321  13.827 -29.571  0.00  0.00    +0.248 C 
ATOM     30  O   UNL     1       0.466  12.919 -29.348  0.00  0.00    -0.270 OA
ATOM     31  H   UNL     1      -1.871  14.604 -30.665  0.00  0.00    +0.155 HD
BRANCH  14  15
ATOM     15  C   UNL     1      -0.413  14.904 -28.539  0.00  0.00    +0.037 A 
ATOM     16  C   UNL     1      -0.187  14.617 -27.120  0.00  0.00    +0.013 A 
ATOM     17  C   UNL     1      -0.299  15.671 -26.143  0.00  0.00    +0.005 A 
ATOM     18  C   UNL     1      -0.637  17.023 -26.583  0.00  0.00    -0.033 A 
ATOM     28  C   UNL     1      -0.851  17.280 -27.997  0.00  0.00    +0.005 A 
ATOM     29  C   UNL     1      -0.743  16.249 -28.957  0.00  0.00    +0.013 A 
BRANCH  18  19
ATOM     19  C   UNL     1      -0.798  18.204 -25.607  0.00  0.00    +0.119 C 
BRANCH  19  20
ATOM     20  N   UNL     1       0.200  19.310 -25.703  0.00  0.00    -0.302 NA
ATOM     21  C   UNL     1       1.559  18.910 -25.122  0.00  0.00    +0.066 C 
ATOM     22  C   UNL     1       2.598  20.071 -25.251  0.00  0.00    -0.064 C 
ATOM     23  N   UNL     1       2.056  21.317 -24.549  0.00  0.00    +0.379 N 
ATOM     24  C   UNL     1       3.055  22.393 -24.618  0.00  0.00    -0.096 C 
ATOM     25  H   UNL     1       1.907  21.061 -23.474  0.00  0.00    -0.082 HD
ATOM     26  C   UNL     1       0.703  21.721 -25.118  0.00  0.00    -0.064 C 
ATOM     27  C   UNL     1      -0.313  20.550 -25.012  0.00  0.00    +0.066 C 
ENDBRANCH  19  20
ENDBRANCH  18  19
ENDBRANCH  14  15
ENDBRANCH  12  13
TORSDOF 6
ENDMDL
MODEL 4
REMARK VINA RESULT:      -9.5      3.333      7.290
REMARK  Name = C:\Users\Docking\Desktop\test protocol\1iep_ligandH.pdb
REMARK  8 active torsions:
REMARK  status: ('A' for Active; 'I' for Inactive)
REMARK    1  A    between atoms: _5  and  _11
REMARK    2  A    between atoms: _19  and  _21
REMARK    3  A    between atoms: _22  and  _66
REMARK    4  A    between atoms: _27  and  _30
REMARK    5  A    between atoms: _32  and  _33
REMARK    6  A    between atoms: _38  and  _43
REMARK    7  A    between atoms: _43  and  _46
REMARK    8  A    between atoms: _53  and  _55
REMARK                            x       y       z     vdW  Elec       q    Type
REMARK                         _______ _______ _______ _____ _____    ______ ____
ROOT
ATOM     10  C   UNL     1      -0.847  18.527 -29.626  0.00  0.00    +0.038 A 
ATOM     11  C   UNL     1      -0.820  17.297 -30.331  0.00  0.00    +0.047 A 
ATOM     12  C   UNL     1      -1.867  16.948 -31.279  0.00  0.00    +0.035 A 
ATOM     32  C   UNL     1      -2.926  17.879 -31.487  0.00  0.00    +0.024 A 
ATOM     33  C   UNL     1      -2.970  19.134 -30.779  0.00  0.00    +0.007 A 
ATOM     34  C   UNL     1      -1.941  19.482 -29.841  0.00  0.00    -0.029 A 
ATOM     35  C   UNL     1      -2.043  20.838 -29.105  0.00  0.00    +0.045 C 
ENDROOT
BRANCH  10   9
ATOM      4  C   UNL     1       1.550  17.727 -25.546  0.00  0.00    +0.077 A 
ATOM      5  C   UNL     1       0.657  16.674 -25.158  0.00  0.00    +0.048 A 
ATOM      6  C   UNL     1      -0.411  16.374 -26.033  0.00  0.00    +0.116 A 
ATOM      7  N   UNL     1      -0.564  17.081 -27.206  0.00  0.00    -0.223 NA
ATOM      8  C   UNL     1       0.315  18.092 -27.550  0.00  0.00    +0.220 A 
ATOM      9  N   UNL     1       0.184  18.810 -28.728  0.00  0.00    -0.283 N 
ATOM     36  H   UNL     1       0.849  19.553 -28.942  0.00  0.00    +0.155 HD
ATOM     37  N   UNL     1       1.342  18.398 -26.730  0.00  0.00    -0.214 NA
BRANCH   4   3
ATOM      1  C   UNL     1       4.072  18.207 -22.594  0.00  0.00    +0.020 A 
ATOM      2  C   UNL     1       2.916  17.763 -23.339  0.00  0.00    +0.013 A 
ATOM      3  C   UNL     1       2.728  18.159 -24.729  0.00  0.00    +0.019 A 
ATOM     38  C   UNL     1       3.737  19.011 -25.341  0.00  0.00    +0.120 A 
ATOM     39  N   UNL     1       4.839  19.424 -24.599  0.00  0.00    -0.263 NA
ATOM     40  C   UNL     1       5.029  19.051 -23.260  0.00  0.00    +0.111 A 
ENDBRANCH   4   3
ENDBRANCH  10   9
BRANCH  12  13
ATOM     13  N   UNL     1      -1.896  15.710 -32.017  0.00  0.00    -0.281 N 
ATOM     14  C   UNL     1      -0.971  14.680 -31.988  0.00  0.00    +0.248 C 
ATOM     30  O   UNL     1       0.138  14.761 -31.482  0.00  0.00    -0.270 OA
ATOM     31  H   UNL     1      -2.697  15.577 -32.635  0.00  0.00    +0.155 HD
BRANCH  14  15
ATOM     15  C   UNL     1      -1.323  13.375 -32.628  0.00  0.00    +0.037 A 
ATOM     16  C   UNL     1      -0.785  13.002 -33.939  0.00  0.00    +0.013 A 
ATOM     17  C   UNL     1      -1.154  11.745 -34.541  0.00  0.00    +0.005 A 
ATOM     18  C   UNL     1      -2.066  10.852 -33.831  0.00  0.00    -0.033 A 
ATOM     28  C   UNL     1      -2.581  11.245 -32.530  0.00  0.00    +0.005 A 
ATOM     29  C   UNL     1      -2.222  12.476 -31.937  0.00  0.00    +0.013 A 
BRANCH  18  19
ATOM     19  C   UNL     1      -2.530   9.501 -34.407  0.00  0.00    +0.119 C 
BRANCH  19  20
ATOM     20  N   UNL     1      -2.794   8.398 -33.436  0.00  0.00    -0.302 NA
ATOM     21  C   UNL     1      -2.167   7.075 -33.884  0.00  0.00    +0.066 C 
ATOM     22  C   UNL     1      -2.434   5.937 -32.846  0.00  0.00    -0.064 C 
ATOM     23  N   UNL     1      -3.941   5.780 -32.642  0.00  0.00    +0.379 N 
ATOM     24  C   UNL     1      -4.197   4.672 -31.710  0.00  0.00    -0.096 C 
ATOM     25  H   UNL     1      -4.388   5.505 -33.626  0.00  0.00    -0.082 HD
ATOM     26  C   UNL     1      -4.574   7.091 -32.199  0.00  0.00    -0.064 C 
ATOM     27  C   UNL     1      -4.278   8.222 -33.223  0.00  0.00    +0.066 C 
ENDBRANCH  19  20
ENDBRANCH  18  19
ENDBRANCH  14  15
ENDBRANCH  12  13
TORSDOF 6
ENDMDL
MODEL 5
REMARK VINA RESULT:      -9.2      2.939      4.595
REMARK  Name = C:\Users\Docking\Desktop\test protocol\1iep_ligandH.pdb
REMARK  8 active torsions:
REMARK  status: ('A' for Active; 'I' for Inactive)
REMARK    1  A    between atoms: _5  and  _11
REMARK    2  A    between atoms: _19  and  _21
REMARK    3  A    between atoms: _22  and  _66
REMARK    4  A    between atoms: _27  and  _30
REMARK    5  A    between atoms: _32  and  _33
REMARK    6  A    between atoms: _38  and  _43
REMARK    7  A    between atoms: _43  and  _46
REMARK    8  A    between atoms: _53  and  _55
REMARK                            x       y       z     vdW  Elec       q    Type
REMARK                         _______ _______ _______ _____ _____    ______ ____
ROOT
ATOM     10  C   UNL     1      -0.792  15.348 -31.232  0.00  0.00    +0.038 A 
ATOM     11  C   UNL     1      -1.080  13.967 -31.371  0.00  0.00    +0.047 A 
ATOM     12  C   UNL     1      -2.322  13.515 -31.979  0.00  0.00    +0.035 A 
ATOM     32  C   UNL     1      -3.246  14.498 -32.438  0.00  0.00    +0.024 A 
ATOM     33  C   UNL     1      -2.969  15.907 -32.304  0.00  0.00    +0.007 A 
ATOM     34  C   UNL     1      -1.747  16.358 -31.702  0.00  0.00    -0.029 A 
ATOM     35  C   UNL     1      -1.506  17.881 -31.578  0.00  0.00    +0.045 C 
ENDROOT
BRANCH  10   9
ATOM      4  C   UNL     1       1.834  16.653 -27.431  0.00  0.00    +0.077 A 
ATOM      5  C   UNL     1       0.698  16.604 -26.556  0.00  0.00    +0.048 A 
ATOM      6  C   UNL     1      -0.545  16.246 -27.124  0.00  0.00    +0.116 A 
ATOM      7  N   UNL     1      -0.634  15.959 -28.469  0.00  0.00    -0.223 NA
ATOM      8  C   UNL     1       0.481  16.018 -29.286  0.00  0.00    +0.220 A 
ATOM      9  N   UNL     1       0.416  15.726 -30.640  0.00  0.00    -0.283 N 
ATOM     36  H   UNL     1       1.259  15.788 -31.210  0.00  0.00    +0.155 HD
ATOM     37  N   UNL     1       1.679  16.359 -28.768  0.00  0.00    -0.214 NA
BRANCH   4   3
ATOM      1  C   UNL     1       5.680  16.537 -26.730  0.00  0.00    +0.020 A 
ATOM      2  C   UNL     1       4.367  16.143 -27.185  0.00  0.00    +0.013 A 
ATOM      3  C   UNL     1       3.215  17.012 -26.979  0.00  0.00    +0.019 A 
ATOM     38  C   UNL     1       3.428  18.283 -26.304  0.00  0.00    +0.120 A 
ATOM     39  N   UNL     1       4.703  18.636 -25.875  0.00  0.00    -0.263 NA
ATOM     40  C   UNL     1       5.819  17.807 -26.066  0.00  0.00    +0.111 A 
ENDBRANCH   4   3
ENDBRANCH  10   9
BRANCH  12  13
ATOM     13  N   UNL     1      -2.673  12.126 -32.140  0.00  0.00    -0.281 N 
ATOM     14  C   UNL     1      -2.321  11.272 -33.173  0.00  0.00    +0.248 C 
ATOM     30  O   UNL     1      -1.824  11.634 -34.229  0.00  0.00    -0.270 OA
ATOM     31  H   UNL     1      -3.252  11.723 -31.403  0.00  0.00    +0.155 HD
BRANCH  14  15
ATOM     15  C   UNL     1      -2.569   9.807 -33.015  0.00  0.00    +0.037 A 
ATOM     16  C   UNL     1      -1.465   8.843 -33.028  0.00  0.00    +0.013 A 
ATOM     17  C   UNL     1      -1.734   7.434 -32.891  0.00  0.00    +0.005 A 
ATOM     18  C   UNL     1      -3.114   6.979 -32.737  0.00  0.00    -0.033 A 
ATOM     28  C   UNL     1      -4.189   7.957 -32.722  0.00  0.00    +0.005 A 
ATOM     29  C   UNL     1      -3.930   9.340 -32.857  0.00  0.00    +0.013 A 
BRANCH  18  19
ATOM     19  C   UNL     1      -3.495   5.493 -32.606  0.00  0.00    +0.119 C 
BRANCH  19  20
ATOM     20  N   UNL     1      -2.379   4.503 -32.548  0.00  0.00    -0.302 NA
ATOM     21  C   UNL     1      -1.983   4.003 -33.940  0.00  0.00    +0.066 C 
ATOM     22  C   UNL     1      -0.798   2.985 -33.863  0.00  0.00    -0.064 C 
ATOM     23  N   UNL     1      -1.192   1.816 -32.959  0.00  0.00    +0.379 N 
ATOM     24  C   UNL     1      -0.103   0.829 -32.931  0.00  0.00    -0.096 C 
ATOM     25  H   UNL     1      -2.083   1.323 -33.413  0.00  0.00    -0.082 HD
ATOM     26  C   UNL     1      -1.590   2.305 -31.574  0.00  0.00    -0.064 C 
ATOM     27  C   UNL     1      -2.748   3.338 -31.664  0.00  0.00    +0.066 C 
ENDBRANCH  19  20
ENDBRANCH  18  19
ENDBRANCH  14  15
ENDBRANCH  12  13
TORSDOF 6
ENDMDL
