MODEL 1
REMARK VINA RESULT:      -7.1      0.000      0.000
REMARK  Name = C:\Users\Docking\Desktop\test protocol\1iep_ligandH.pdb
REMARK  8 active torsions:
REMARK  status: ('A' for Active; 'I' for Inactive)
REMARK    1  A    between atoms: _5  and  _11
REMARK    2  A    between atoms: _19  and  _21
REMARK    3  A    between atoms: _22  and  _66
REMARK    4  A    between atoms: _27  and  _30
REMARK    5  A    between atoms: _32  and  _33
REMARK    6  A    between atoms: _38  and  _43
REMARK    7  A    between atoms: _43  and  _46
REMARK    8  A    between atoms: _53  and  _55
REMARK                            x       y       z     vdW  Elec       q    Type
REMARK                         _______ _______ _______ _____ _____    ______ ____
ROOT
ATOM     10  C   UNL     1     -12.560   7.676 -77.139  0.00  0.00    +0.038 A 
ATOM     11  C   UNL     1     -12.290   6.386 -76.615  0.00  0.00    +0.047 A 
ATOM     12  C   UNL     1     -12.398   6.115 -75.190  0.00  0.00    +0.035 A 
ATOM     32  C   UNL     1     -12.787   7.181 -74.327  0.00  0.00    +0.024 A 
ATOM     33  C   UNL     1     -13.063   8.499 -74.842  0.00  0.00    +0.007 A 
ATOM     34  C   UNL     1     -12.956   8.773 -76.247  0.00  0.00    -0.029 A 
ATOM     35  C   UNL     1     -13.258  10.206 -76.743  0.00  0.00    +0.045 C 
ENDROOT
BRANCH  10   9
ATOM      4  C   UNL     1      -9.943   8.239 -81.123  0.00  0.00    +0.077 A 
ATOM      5  C   UNL     1      -8.709   8.144 -80.397  0.00  0.00    +0.048 A 
ATOM      6  C   UNL     1      -8.792   7.958 -78.999  0.00  0.00    +0.116 A 
ATOM      7  N   UNL     1     -10.022   7.873 -78.383  0.00  0.00    -0.223 NA
ATOM      8  C   UNL     1     -11.192   7.971 -79.113  0.00  0.00    +0.220 A 
ATOM      9  N   UNL     1     -12.440   7.881 -78.515  0.00  0.00    -0.283 N 
ATOM     36  H   UNL     1     -13.280   7.965 -79.087  0.00  0.00    +0.155 HD
ATOM     37  N   UNL     1     -11.140   8.150 -80.449  0.00  0.00    -0.214 NA
BRANCH   4   3
ATOM      1  C   UNL     1      -8.970   8.706 -84.883  0.00  0.00    +0.020 A 
ATOM      2  C   UNL     1      -8.840   8.518 -83.456  0.00  0.00    +0.013 A 
ATOM      3  C   UNL     1     -10.020   8.433 -82.605  0.00  0.00    +0.019 A 
ATOM     38  C   UNL     1     -11.328   8.541 -83.235  0.00  0.00    +0.120 A 
ATOM     39  N   UNL     1     -11.422   8.722 -84.611  0.00  0.00    -0.263 NA
ATOM     40  C   UNL     1     -10.293   8.808 -85.440  0.00  0.00    +0.111 A 
ENDBRANCH   4   3
ENDBRANCH  10   9
BRANCH  12  13
ATOM     13  N   UNL     1     -12.129   4.827 -74.600  0.00  0.00    -0.281 N 
ATOM     14  C   UNL     1     -13.034   3.820 -74.303  0.00  0.00    +0.248 C 
ATOM     30  O   UNL     1     -14.248   3.959 -74.305  0.00  0.00    -0.270 OA
ATOM     31  H   UNL     1     -11.154   4.635 -74.372  0.00  0.00    +0.155 HD
BRANCH  14  15
ATOM     15  C   UNL     1     -12.514   2.467 -73.939  0.00  0.00    +0.037 A 
ATOM     16  C   UNL     1     -12.845   1.285 -74.738  0.00  0.00    +0.013 A 
ATOM     17  C   UNL     1     -12.345  -0.011 -74.354  0.00  0.00    +0.005 A 
ATOM     18  C   UNL     1     -11.505  -0.131 -73.164  0.00  0.00    -0.033 A 
ATOM     28  C   UNL     1     -11.187   1.059 -72.393  0.00  0.00    +0.005 A 
ATOM     29  C   UNL     1     -11.677   2.331 -72.765  0.00  0.00    +0.013 A 
BRANCH  18  19
ATOM     19  C   UNL     1     -10.944  -1.477 -72.668  0.00  0.00    +0.119 C 
BRANCH  19  20
ATOM     20  N   UNL     1      -9.723  -1.434 -71.810  0.00  0.00    -0.302 NA
ATOM     21  C   UNL     1      -8.553  -2.197 -72.438  0.00  0.00    +0.066 C 
ATOM     22  C   UNL     1      -7.277  -2.123 -71.538  0.00  0.00    -0.064 C 
ATOM     23  N   UNL     1      -7.602  -2.678 -70.150  0.00  0.00    +0.379 N 
ATOM     24  C   UNL     1      -6.390  -2.664 -69.319  0.00  0.00    -0.096 C 
ATOM     25  H   UNL     1      -7.914  -3.741 -70.276  0.00  0.00    -0.082 HD
ATOM     26  C   UNL     1      -8.767  -1.927 -69.519  0.00  0.00    -0.064 C 
ATOM     27  C   UNL     1     -10.021  -1.982 -70.436  0.00  0.00    +0.066 C 
ENDBRANCH  19  20
ENDBRANCH  18  19
ENDBRANCH  14  15
ENDBRANCH  12  13
TORSDOF 6
ENDMDL
MODEL 2
REMARK VINA RESULT:      -6.7     26.277     30.129
REMARK  Name = C:\Users\Docking\Desktop\test protocol\1iep_ligandH.pdb
REMARK  8 active torsions:
REMARK  status: ('A' for Active; 'I' for Inactive)
REMARK    1  A    between atoms: _5  and  _11
REMARK    2  A    between atoms: _19  and  _21
REMARK    3  A    between atoms: _22  and  _66
REMARK    4  A    between atoms: _27  and  _30
REMARK    5  A    between atoms: _32  and  _33
REMARK    6  A    between atoms: _38  and  _43
REMARK    7  A    between atoms: _43  and  _46
REMARK    8  A    between atoms: _53  and  _55
REMARK                            x       y       z     vdW  Elec       q    Type
REMARK                         _______ _______ _______ _____ _____    ______ ____
ROOT
ATOM     10  C   UNL     1      -1.670  12.410 -99.550  0.00  0.00    +0.038 A 
ATOM     11  C   UNL     1      -0.281  12.493 -99.824  0.00  0.00    +0.047 A 
ATOM     12  C   UNL     1       0.451  13.736 -99.636  0.00  0.00    +0.035 A 
ATOM     32  C   UNL     1      -0.264  14.875 -99.164  0.00  0.00    +0.024 A 
ATOM     33  C   UNL     1      -1.676  14.809 -98.881  0.00  0.00    +0.007 A 
ATOM     34  C   UNL     1      -2.403  13.586 -99.067  0.00  0.00    -0.029 A 
ATOM     35  C   UNL     1      -3.918  13.575 -98.755  0.00  0.00    +0.045 C 
ENDROOT
BRANCH  10   9
ATOM      4  C   UNL     1      -4.152   9.332-102.271  0.00  0.00    +0.077 A 
ATOM      5  C   UNL     1      -4.174  10.240-103.381  0.00  0.00    +0.048 A 
ATOM      6  C   UNL     1      -3.541  11.491-103.209  0.00  0.00    +0.116 A 
ATOM      7  N   UNL     1      -2.935  11.801-102.011  0.00  0.00    -0.223 NA
ATOM      8  C   UNL     1      -2.933  10.904-100.959  0.00  0.00    +0.220 A 
ATOM      9  N   UNL     1      -2.322  11.191 -99.749  0.00  0.00    -0.283 N 
ATOM     36  H   UNL     1      -2.349  10.505 -98.995  0.00  0.00    +0.155 HD
ATOM     37  N   UNL     1      -3.532   9.702-101.098  0.00  0.00    -0.214 NA
BRANCH   4   3
ATOM      1  C   UNL     1      -6.756   6.415-102.168  0.00  0.00    +0.020 A 
ATOM      2  C   UNL     1      -6.205   7.750-102.132  0.00  0.00    +0.013 A 
ATOM      3  C   UNL     1      -4.774   7.971-102.299  0.00  0.00    +0.019 A 
ATOM     38  C   UNL     1      -3.921   6.810-102.503  0.00  0.00    +0.120 A 
ATOM     39  N   UNL     1      -4.479   5.535-102.532  0.00  0.00    -0.263 NA
ATOM     40  C   UNL     1      -5.855   5.311-102.371  0.00  0.00    +0.111 A 
ENDBRANCH   4   3
ENDBRANCH  10   9
BRANCH  12  13
ATOM     13  N   UNL     1       1.860  13.882 -99.905  0.00  0.00    -0.281 N 
ATOM     14  C   UNL     1       2.550  13.520-101.050  0.00  0.00    +0.248 C 
ATOM     30  O   UNL     1       2.093  12.817-101.939  0.00  0.00    -0.270 OA
ATOM     31  H   UNL     1       2.416  14.304 -99.161  0.00  0.00    +0.155 HD
BRANCH  14  15
ATOM     15  C   UNL     1       3.955  13.997-101.227  0.00  0.00    +0.037 A 
ATOM     16  C   UNL     1       4.904  13.269-102.074  0.00  0.00    +0.013 A 
ATOM     17  C   UNL     1       6.258  13.742-102.214  0.00  0.00    +0.005 A 
ATOM     18  C   UNL     1       6.672  14.951-101.506  0.00  0.00    -0.033 A 
ATOM     28  C   UNL     1       5.709  15.657-100.677  0.00  0.00    +0.005 A 
ATOM     29  C   UNL     1       4.381  15.196-100.537  0.00  0.00    +0.013 A 
BRANCH  18  19
ATOM     19  C   UNL     1       8.103  15.516-101.581  0.00  0.00    +0.119 C 
BRANCH  19  20
ATOM     20  N   UNL     1       9.189  14.714-100.942  0.00  0.00    -0.302 NA
ATOM     21  C   UNL     1       9.050  14.672 -99.418  0.00  0.00    +0.066 C 
ATOM     22  C   UNL     1      10.181  13.810 -98.767  0.00  0.00    -0.064 C 
ATOM     23  N   UNL     1      11.545  14.374 -99.172  0.00  0.00    +0.379 N 
ATOM     24  C   UNL     1      12.609  13.601 -98.515  0.00  0.00    -0.096 C 
ATOM     25  H   UNL     1      11.603  15.421 -98.793  0.00  0.00    -0.082 HD
ATOM     26  C   UNL     1      11.690  14.422-100.686  0.00  0.00    -0.064 C 
ATOM     27  C   UNL     1      10.544  15.256-101.325  0.00  0.00    +0.066 C 
ENDBRANCH  19  20
ENDBRANCH  18  19
ENDBRANCH  14  15
ENDBRANCH  12  13
TORSDOF 6
ENDMDL
MODEL 3
REMARK VINA RESULT:      -6.6      7.686     18.079
REMARK  Name = C:\Users\Docking\Desktop\test protocol\1iep_ligandH.pdb
REMARK  8 active torsions:
REMARK  status: ('A' for Active; 'I' for Inactive)
REMARK    1  A    between atoms: _5  and  _11
REMARK    2  A    between atoms: _19  and  _21
REMARK    3  A    between atoms: _22  and  _66
REMARK    4  A    between atoms: _27  and  _30
REMARK    5  A    between atoms: _32  and  _33
REMARK    6  A    between atoms: _38  and  _43
REMARK    7  A    between atoms: _43  and  _46
REMARK    8  A    between atoms: _53  and  _55
REMARK                            x       y       z     vdW  Elec       q    Type
REMARK                         _______ _______ _______ _____ _____    ______ ____
ROOT
ATOM     10  C   UNL     1     -10.040   9.080 -86.962  0.00  0.00    +0.038 A 
ATOM     11  C   UNL     1      -9.929  10.416 -87.424  0.00  0.00    +0.047 A 
ATOM     12  C   UNL     1     -10.261  10.768 -88.796  0.00  0.00    +0.035 A 
ATOM     32  C   UNL     1     -10.706   9.733 -89.670  0.00  0.00    +0.024 A 
ATOM     33  C   UNL     1     -10.823   8.369 -89.217  0.00  0.00    +0.007 A 
ATOM     34  C   UNL     1     -10.494   8.016 -87.865  0.00  0.00    -0.029 A 
ATOM     35  C   UNL     1     -10.632   6.537 -87.436  0.00  0.00    +0.045 C 
ENDROOT
BRANCH  10   9
ATOM      4  C   UNL     1     -11.173   8.629 -82.319  0.00  0.00    +0.077 A 
ATOM      5  C   UNL     1     -12.536   9.011 -82.554  0.00  0.00    +0.048 A 
ATOM      6  C   UNL     1     -12.902   9.323 -83.882  0.00  0.00    +0.116 A 
ATOM      7  N   UNL     1     -11.968   9.254 -84.893  0.00  0.00    -0.223 NA
ATOM      8  C   UNL     1     -10.662   8.883 -84.632  0.00  0.00    +0.220 A 
ATOM      9  N   UNL     1      -9.708   8.799 -85.634  0.00  0.00    -0.283 N 
ATOM     36  H   UNL     1      -8.753   8.529 -85.400  0.00  0.00    +0.155 HD
ATOM     37  N   UNL     1     -10.286   8.582 -83.372  0.00  0.00    -0.214 NA
BRANCH   4   3
ATOM      1  C   UNL     1      -8.754   7.639 -79.409  0.00  0.00    +0.020 A 
ATOM      2  C   UNL     1      -9.224   7.984 -80.731  0.00  0.00    +0.013 A 
ATOM      3  C   UNL     1     -10.633   8.267 -80.971  0.00  0.00    +0.019 A 
ATOM     38  C   UNL     1     -11.548   8.193 -79.842  0.00  0.00    +0.120 A 
ATOM     39  N   UNL     1     -11.068   7.857 -78.580  0.00  0.00    -0.263 NA
ATOM     40  C   UNL     1      -9.714   7.581 -78.338  0.00  0.00    +0.111 A 
ENDBRANCH   4   3
ENDBRANCH  10   9
BRANCH  12  13
ATOM     13  N   UNL     1     -10.161  12.105 -89.324  0.00  0.00    -0.281 N 
ATOM     14  C   UNL     1     -10.970  13.194 -89.045  0.00  0.00    +0.248 C 
ATOM     30  O   UNL     1     -12.039  13.128 -88.457  0.00  0.00    -0.270 OA
ATOM     31  H   UNL     1      -9.401  12.270 -89.985  0.00  0.00    +0.155 HD
BRANCH  14  15
ATOM     15  C   UNL     1     -10.536  14.552 -89.496  0.00  0.00    +0.037 A 
ATOM     16  C   UNL     1     -10.845  15.040 -90.842  0.00  0.00    +0.013 A 
ATOM     17  C   UNL     1     -10.400  16.347 -91.257  0.00  0.00    +0.005 A 
ATOM     18  C   UNL     1      -9.640  17.175 -90.324  0.00  0.00    -0.033 A 
ATOM     28  C   UNL     1      -9.351  16.667 -88.993  0.00  0.00    +0.005 A 
ATOM     29  C   UNL     1      -9.786  15.387 -88.582  0.00  0.00    +0.013 A 
BRANCH  18  19
ATOM     19  C   UNL     1      -9.107  18.572 -90.689  0.00  0.00    +0.119 C 
BRANCH  19  20
ATOM     20  N   UNL     1      -8.296  19.286 -89.657  0.00  0.00    -0.302 NA
ATOM     21  C   UNL     1      -8.775  20.725 -89.444  0.00  0.00    +0.066 C 
ATOM     22  C   UNL     1      -7.930  21.449 -88.346  0.00  0.00    -0.064 C 
ATOM     23  N   UNL     1      -6.453  21.423 -88.743  0.00  0.00    +0.379 N 
ATOM     24  C   UNL     1      -5.663  22.154 -87.741  0.00  0.00    -0.096 C 
ATOM     25  H   UNL     1      -6.355  21.964 -89.712  0.00  0.00    -0.082 HD
ATOM     26  C   UNL     1      -5.969  19.996 -88.960  0.00  0.00    -0.064 C 
ATOM     27  C   UNL     1      -6.834  19.276 -90.032  0.00  0.00    +0.066 C 
ENDBRANCH  19  20
ENDBRANCH  18  19
ENDBRANCH  14  15
ENDBRANCH  12  13
TORSDOF 6
ENDMDL
MODEL 4
REMARK VINA RESULT:      -6.6     28.438     30.419
REMARK  Name = C:\Users\Docking\Desktop\test protocol\1iep_ligandH.pdb
REMARK  8 active torsions:
REMARK  status: ('A' for Active; 'I' for Inactive)
REMARK    1  A    between atoms: _5  and  _11
REMARK    2  A    between atoms: _19  and  _21
REMARK    3  A    between atoms: _22  and  _66
REMARK    4  A    between atoms: _27  and  _30
REMARK    5  A    between atoms: _32  and  _33
REMARK    6  A    between atoms: _38  and  _43
REMARK    7  A    between atoms: _43  and  _46
REMARK    8  A    between atoms: _53  and  _55
REMARK                            x       y       z     vdW  Elec       q    Type
REMARK                         _______ _______ _______ _____ _____    ______ ____
ROOT
ATOM     10  C   UNL     1       6.643  19.611 -97.256  0.00  0.00    +0.038 A 
ATOM     11  C   UNL     1       7.218  19.298 -95.998  0.00  0.00    +0.047 A 
ATOM     12  C   UNL     1       8.122  20.223 -95.333  0.00  0.00    +0.035 A 
ATOM     32  C   UNL     1       8.416  21.461 -95.976  0.00  0.00    +0.024 A 
ATOM     33  C   UNL     1       7.841  21.795 -97.255  0.00  0.00    +0.007 A 
ATOM     34  C   UNL     1       6.950  20.885 -97.917  0.00  0.00    -0.029 A 
ATOM     35  C   UNL     1       6.368  21.294 -99.290  0.00  0.00    +0.045 C 
ENDROOT
BRANCH  10   9
ATOM      4  C   UNL     1       5.793  15.837-100.096  0.00  0.00    +0.077 A 
ATOM      5  C   UNL     1       7.178  15.714-100.448  0.00  0.00    +0.048 A 
ATOM      6  C   UNL     1       8.076  16.647 -99.881  0.00  0.00    +0.116 A 
ATOM      7  N   UNL     1       7.612  17.624 -99.029  0.00  0.00    -0.223 NA
ATOM      8  C   UNL     1       6.269  17.716 -98.712  0.00  0.00    +0.220 A 
ATOM      9  N   UNL     1       5.781  18.686 -97.850  0.00  0.00    -0.283 N 
ATOM     36  H   UNL     1       4.783  18.725 -97.648  0.00  0.00    +0.155 HD
ATOM     37  N   UNL     1       5.391  16.838 -99.241  0.00  0.00    -0.214 NA
BRANCH   4   3
ATOM      1  C   UNL     1       3.884  13.096-102.133  0.00  0.00    +0.020 A 
ATOM      2  C   UNL     1       4.952  13.954-101.673  0.00  0.00    +0.013 A 
ATOM      3  C   UNL     1       4.723  14.925-100.611  0.00  0.00    +0.019 A 
ATOM     38  C   UNL     1       3.391  15.002-100.029  0.00  0.00    +0.120 A 
ATOM     39  N   UNL     1       2.382  14.164-100.493  0.00  0.00    -0.263 NA
ATOM     40  C   UNL     1       2.590  13.227-101.517  0.00  0.00    +0.111 A 
ENDBRANCH   4   3
ENDBRANCH  10   9
BRANCH  12  13
ATOM     13  N   UNL     1       8.743  19.955 -94.059  0.00  0.00    -0.281 N 
ATOM     14  C   UNL     1       8.209  20.145 -92.795  0.00  0.00    +0.248 C 
ATOM     30  O   UNL     1       7.190  20.778 -92.563  0.00  0.00    -0.270 OA
ATOM     31  H   UNL     1       9.691  19.581 -94.094  0.00  0.00    +0.155 HD
BRANCH  14  15
ATOM     15  C   UNL     1       8.918  19.560 -91.617  0.00  0.00    +0.037 A 
ATOM     16  C   UNL     1      10.351  19.260 -91.664  0.00  0.00    +0.013 A 
ATOM     17  C   UNL     1      11.007  18.679 -90.519  0.00  0.00    +0.005 A 
ATOM     18  C   UNL     1      10.229  18.397 -89.315  0.00  0.00    -0.033 A 
ATOM     28  C   UNL     1       8.810  18.709 -89.294  0.00  0.00    +0.005 A 
ATOM     29  C   UNL     1       8.163  19.277 -90.414  0.00  0.00    +0.013 A 
BRANCH  18  19
ATOM     19  C   UNL     1      10.841  17.759 -88.054  0.00  0.00    +0.119 C 
BRANCH  19  20
ATOM     20  N   UNL     1      11.961  18.492 -87.392  0.00  0.00    -0.302 NA
ATOM     21  C   UNL     1      12.567  17.692 -86.235  0.00  0.00    +0.066 C 
ATOM     22  C   UNL     1      13.752  18.464 -85.568  0.00  0.00    -0.064 C 
ATOM     23  N   UNL     1      13.259  19.829 -85.084  0.00  0.00    +0.379 N 
ATOM     24  C   UNL     1      14.356  20.534 -84.405  0.00  0.00    -0.096 C 
ATOM     25  H   UNL     1      12.455  19.651 -84.332  0.00  0.00    -0.082 HD
ATOM     26  C   UNL     1      12.653  20.630 -86.227  0.00  0.00    -0.064 C 
ATOM     27  C   UNL     1      11.496  19.841 -86.902  0.00  0.00    +0.066 C 
ENDBRANCH  19  20
ENDBRANCH  18  19
ENDBRANCH  14  15
ENDBRANCH  12  13
TORSDOF 6
ENDMDL
MODEL 5
REMARK VINA RESULT:      -6.5     28.569     31.544
REMARK  Name = C:\Users\Docking\Desktop\test protocol\1iep_ligandH.pdb
REMARK  8 active torsions:
REMARK  status: ('A' for Active; 'I' for Inactive)
REMARK    1  A    between atoms: _5  and  _11
REMARK    2  A    between atoms: _19  and  _21
REMARK    3  A    between atoms: _22  and  _66
REMARK    4  A    between atoms: _27  and  _30
REMARK    5  A    between atoms: _32  and  _33
REMARK    6  A    between atoms: _38  and  _43
REMARK    7  A    between atoms: _43  and  _46
REMARK    8  A    between atoms: _53  and  _55
REMARK                            x       y       z     vdW  Elec       q    Type
REMARK                         _______ _______ _______ _____ _____    ______ ____
ROOT
ATOM     10  C   UNL     1      21.610   1.589 -75.917  0.00  0.00    +0.038 A 
ATOM     11  C   UNL     1      20.929   0.500 -75.314  0.00  0.00    +0.047 A 
ATOM     12  C   UNL     1      21.647  -0.687 -74.877  0.00  0.00    +0.035 A 
ATOM     32  C   UNL     1      23.059  -0.732 -75.068  0.00  0.00    +0.024 A 
ATOM     33  C   UNL     1      23.767   0.365 -75.680  0.00  0.00    +0.007 A 
ATOM     34  C   UNL     1      23.064   1.538 -76.115  0.00  0.00    -0.029 A 
ATOM     35  C   UNL     1      23.873   2.681 -76.771  0.00  0.00    +0.045 C 
ENDROOT
BRANCH  10   9
ATOM      4  C   UNL     1      19.407   5.755 -75.008  0.00  0.00    +0.077 A 
ATOM      5  C   UNL     1      19.732   5.690 -73.612  0.00  0.00    +0.048 A 
ATOM      6  C   UNL     1      20.462   4.565 -73.167  0.00  0.00    +0.116 A 
ATOM      7  N   UNL     1      20.833   3.583 -74.060  0.00  0.00    -0.223 NA
ATOM      8  C   UNL     1      20.501   3.675 -75.400  0.00  0.00    +0.220 A 
ATOM      9  N   UNL     1      20.871   2.704 -76.317  0.00  0.00    -0.283 N 
ATOM     36  H   UNL     1      20.601   2.805 -77.295  0.00  0.00    +0.155 HD
ATOM     37  N   UNL     1      19.804   4.740 -75.849  0.00  0.00    -0.214 NA
BRANCH   4   3
ATOM      1  C   UNL     1      16.786   7.799 -77.070  0.00  0.00    +0.020 A 
ATOM      2  C   UNL     1      17.488   6.675 -76.494  0.00  0.00    +0.013 A 
ATOM      3  C   UNL     1      18.644   6.882 -75.630  0.00  0.00    +0.019 A 
ATOM     38  C   UNL     1      19.066   8.250 -75.367  0.00  0.00    +0.120 A 
ATOM     39  N   UNL     1      18.371   9.312 -75.936  0.00  0.00    -0.263 NA
ATOM     40  C   UNL     1      17.258   9.125 -76.770  0.00  0.00    +0.111 A 
ENDBRANCH   4   3
ENDBRANCH  10   9
BRANCH  12  13
ATOM     13  N   UNL     1      21.009  -1.826 -74.266  0.00  0.00    -0.281 N 
ATOM     14  C   UNL     1      20.704  -3.046 -74.848  0.00  0.00    +0.248 C 
ATOM     30  O   UNL     1      20.742  -3.267 -76.049  0.00  0.00    -0.270 OA
ATOM     31  H   UNL     1      20.750  -1.721 -73.285  0.00  0.00    +0.155 HD
BRANCH  14  15
ATOM     15  C   UNL     1      20.282  -4.180 -73.970  0.00  0.00    +0.037 A 
ATOM     16  C   UNL     1      20.979  -4.469 -72.714  0.00  0.00    +0.013 A 
ATOM     17  C   UNL     1      20.563  -5.579 -71.895  0.00  0.00    +0.005 A 
ATOM     18  C   UNL     1      19.440  -6.408 -72.328  0.00  0.00    -0.033 A 
ATOM     28  C   UNL     1      18.763  -6.095 -73.576  0.00  0.00    +0.005 A 
ATOM     29  C   UNL     1      19.170  -5.009 -74.382  0.00  0.00    +0.013 A 
BRANCH  18  19
ATOM     19  C   UNL     1      18.941  -7.625 -71.528  0.00  0.00    +0.119 C 
BRANCH  19  20
ATOM     20  N   UNL     1      17.935  -7.371 -70.454  0.00  0.00    -0.302 NA
ATOM     21  C   UNL     1      18.443  -6.364 -69.418  0.00  0.00    +0.066 C 
ATOM     22  C   UNL     1      17.369  -6.093 -68.314  0.00  0.00    -0.064 C 
ATOM     23  N   UNL     1      16.987  -7.414 -67.643  0.00  0.00    +0.379 N 
ATOM     24  C   UNL     1      16.020  -7.155 -66.566  0.00  0.00    -0.096 C 
ATOM     25  H   UNL     1      17.908  -7.835 -67.178  0.00  0.00    -0.082 HD
ATOM     26  C   UNL     1      16.484  -8.422 -68.666  0.00  0.00    -0.064 C 
ATOM     27  C   UNL     1      17.547  -8.662 -69.775  0.00  0.00    +0.066 C 
ENDBRANCH  19  20
ENDBRANCH  18  19
ENDBRANCH  14  15
ENDBRANCH  12  13
TORSDOF 6
ENDMDL
