MODEL 1
REMARK VINA RESULT:      -7.4      0.000      0.000
REMARK  Name = C:\Users\Docking\Desktop\test protocol\1iep_ligandH.pdb
REMARK  8 active torsions:
REMARK  status: ('A' for Active; 'I' for Inactive)
REMARK    1  A    between atoms: _5  and  _11
REMARK    2  A    between atoms: _19  and  _21
REMARK    3  A    between atoms: _22  and  _66
REMARK    4  A    between atoms: _27  and  _30
REMARK    5  A    between atoms: _32  and  _33
REMARK    6  A    between atoms: _38  and  _43
REMARK    7  A    between atoms: _43  and  _46
REMARK    8  A    between atoms: _53  and  _55
REMARK                            x       y       z     vdW  Elec       q    Type
REMARK                         _______ _______ _______ _____ _____    ______ ____
ROOT
ATOM     10  C   UNL     1      24.572  40.472  17.438  0.00  0.00    +0.038 A 
ATOM     11  C   UNL     1      24.482  41.703  18.137  0.00  0.00    +0.047 A 
ATOM     12  C   UNL     1      25.302  41.965  19.309  0.00  0.00    +0.035 A 
ATOM     32  C   UNL     1      26.207  40.951  19.741  0.00  0.00    +0.024 A 
ATOM     33  C   UNL     1      26.311  39.694  19.042  0.00  0.00    +0.007 A 
ATOM     34  C   UNL     1      25.502  39.429  17.887  0.00  0.00    -0.029 A 
ATOM     35  C   UNL     1      25.651  38.061  17.182  0.00  0.00    +0.045 C 
ENDROOT
BRANCH  10   9
ATOM      4  C   UNL     1      23.737  40.723  12.718  0.00  0.00    +0.077 A 
ATOM      5  C   UNL     1      25.014  41.324  12.464  0.00  0.00    +0.048 A 
ATOM      6  C   UNL     1      25.854  41.558  13.576  0.00  0.00    +0.116 A 
ATOM      7  N   UNL     1      25.437  41.213  14.843  0.00  0.00    -0.223 NA
ATOM      8  C   UNL     1      24.197  40.637  15.054  0.00  0.00    +0.220 A 
ATOM      9  N   UNL     1      23.761  40.274  16.319  0.00  0.00    -0.283 N 
ATOM     36  H   UNL     1      22.837  39.858  16.433  0.00  0.00    +0.155 HD
ATOM     37  N   UNL     1      23.377  40.404  14.009  0.00  0.00    -0.214 NA
BRANCH   4   3
ATOM      1  C   UNL     1      20.395  40.372  10.716  0.00  0.00    +0.020 A 
ATOM      2  C   UNL     1      21.316  40.694  11.781  0.00  0.00    +0.013 A 
ATOM      3  C   UNL     1      22.739  40.409  11.647  0.00  0.00    +0.019 A 
ATOM     38  C   UNL     1      23.201  39.794  10.412  0.00  0.00    +0.120 A 
ATOM     39  N   UNL     1      22.291  39.494   9.403  0.00  0.00    -0.263 NA
ATOM     40  C   UNL     1      20.919  39.762   9.522  0.00  0.00    +0.111 A 
ENDBRANCH   4   3
ENDBRANCH  10   9
BRANCH  12  13
ATOM     13  N   UNL     1      25.248  43.192  20.064  0.00  0.00    -0.281 N 
ATOM     14  C   UNL     1      25.477  44.481  19.612  0.00  0.00    +0.248 C 
ATOM     30  O   UNL     1      25.977  44.755  18.531  0.00  0.00    -0.270 OA
ATOM     31  H   UNL     1      25.011  43.099  21.052  0.00  0.00    +0.155 HD
BRANCH  14  15
ATOM     15  C   UNL     1      25.113  45.631  20.494  0.00  0.00    +0.037 A 
ATOM     16  C   UNL     1      25.237  47.015  20.028  0.00  0.00    +0.013 A 
ATOM     17  C   UNL     1      24.895  48.107  20.905  0.00  0.00    +0.005 A 
ATOM     18  C   UNL     1      24.424  47.818  22.258  0.00  0.00    -0.033 A 
ATOM     28  C   UNL     1      24.307  46.436  22.692  0.00  0.00    +0.005 A 
ATOM     29  C   UNL     1      24.642  45.364  21.836  0.00  0.00    +0.013 A 
BRANCH  18  19
ATOM     19  C   UNL     1      24.058  48.921  23.269  0.00  0.00    +0.119 C 
BRANCH  19  20
ATOM     20  N   UNL     1      24.082  48.557  24.717  0.00  0.00    -0.302 NA
ATOM     21  C   UNL     1      22.675  48.492  25.317  0.00  0.00    +0.066 C 
ATOM     22  C   UNL     1      22.718  48.087  26.827  0.00  0.00    -0.064 C 
ATOM     23  N   UNL     1      23.588  49.084  27.594  0.00  0.00    +0.379 N 
ATOM     24  C   UNL     1      23.584  48.741  29.023  0.00  0.00    -0.096 C 
ATOM     25  H   UNL     1      23.123  50.092  27.486  0.00  0.00    -0.082 HD
ATOM     26  C   UNL     1      24.989  49.157  27.002  0.00  0.00    -0.064 C 
ATOM     27  C   UNL     1      24.933  49.531  25.494  0.00  0.00    +0.066 C 
ENDBRANCH  19  20
ENDBRANCH  18  19
ENDBRANCH  14  15
ENDBRANCH  12  13
TORSDOF 6
ENDMDL
MODEL 2
REMARK VINA RESULT:      -7.3     10.168     16.377
REMARK  Name = C:\Users\Docking\Desktop\test protocol\1iep_ligandH.pdb
REMARK  8 active torsions:
REMARK  status: ('A' for Active; 'I' for Inactive)
REMARK    1  A    between atoms: _5  and  _11
REMARK    2  A    between atoms: _19  and  _21
REMARK    3  A    between atoms: _22  and  _66
REMARK    4  A    between atoms: _27  and  _30
REMARK    5  A    between atoms: _32  and  _33
REMARK    6  A    between atoms: _38  and  _43
REMARK    7  A    between atoms: _43  and  _46
REMARK    8  A    between atoms: _53  and  _55
REMARK                            x       y       z     vdW  Elec       q    Type
REMARK                         _______ _______ _______ _____ _____    ______ ____
ROOT
ATOM     10  C   UNL     1      27.188  53.311  27.389  0.00  0.00    +0.038 A 
ATOM     11  C   UNL     1      27.930  54.210  26.581  0.00  0.00    +0.047 A 
ATOM     12  C   UNL     1      28.392  55.486  27.104  0.00  0.00    +0.035 A 
ATOM     32  C   UNL     1      28.082  55.815  28.456  0.00  0.00    +0.024 A 
ATOM     33  C   UNL     1      27.328  54.914  29.291  0.00  0.00    +0.007 A 
ATOM     34  C   UNL     1      26.867  53.654  28.780  0.00  0.00    -0.029 A 
ATOM     35  C   UNL     1      26.057  52.731  29.719  0.00  0.00    +0.045 C 
ENDROOT
BRANCH  10   9
ATOM      4  C   UNL     1      24.135  50.677  24.786  0.00  0.00    +0.077 A 
ATOM      5  C   UNL     1      23.288  51.806  24.528  0.00  0.00    +0.048 A 
ATOM      6  C   UNL     1      23.669  53.045  25.090  0.00  0.00    +0.116 A 
ATOM      7  N   UNL     1      24.815  53.137  25.850  0.00  0.00    -0.223 NA
ATOM      8  C   UNL     1      25.609  52.028  26.081  0.00  0.00    +0.220 A 
ATOM      9  N   UNL     1      26.769  52.099  26.836  0.00  0.00    -0.283 N 
ATOM     36  H   UNL     1      27.323  51.257  26.989  0.00  0.00    +0.155 HD
ATOM     37  N   UNL     1      25.265  50.833  25.557  0.00  0.00    -0.214 NA
BRANCH   4   3
ATOM      1  C   UNL     1      24.048  47.509  22.493  0.00  0.00    +0.020 A 
ATOM      2  C   UNL     1      24.333  48.848  22.955  0.00  0.00    +0.013 A 
ATOM      3  C   UNL     1      23.867  49.301  24.259  0.00  0.00    +0.019 A 
ATOM     38  C   UNL     1      23.110  48.368  25.079  0.00  0.00    +0.120 A 
ATOM     39  N   UNL     1      22.849  47.085  24.607  0.00  0.00    -0.263 NA
ATOM     40  C   UNL     1      23.291  46.638  23.353  0.00  0.00    +0.111 A 
ENDBRANCH   4   3
ENDBRANCH  10   9
BRANCH  12  13
ATOM     13  N   UNL     1      29.143  56.442  26.328  0.00  0.00    -0.281 N 
ATOM     14  C   UNL     1      28.961  57.814  26.260  0.00  0.00    +0.248 C 
ATOM     30  O   UNL     1      27.984  58.404  26.694  0.00  0.00    -0.270 OA
ATOM     31  H   UNL     1      29.900  56.061  25.760  0.00  0.00    +0.155 HD
BRANCH  14  15
ATOM     15  C   UNL     1      30.011  58.649  25.601  0.00  0.00    +0.037 A 
ATOM     16  C   UNL     1      30.511  59.875  26.228  0.00  0.00    +0.013 A 
ATOM     17  C   UNL     1      31.512  60.672  25.564  0.00  0.00    +0.005 A 
ATOM     18  C   UNL     1      32.021  60.243  24.263  0.00  0.00    -0.033 A 
ATOM     28  C   UNL     1      31.512  59.019  23.666  0.00  0.00    +0.005 A 
ATOM     29  C   UNL     1      30.530  58.236  24.314  0.00  0.00    +0.013 A 
BRANCH  18  19
ATOM     19  C   UNL     1      33.074  61.041  23.472  0.00  0.00    +0.119 C 
BRANCH  19  20
ATOM     20  N   UNL     1      32.761  62.469  23.167  0.00  0.00    -0.302 NA
ATOM     21  C   UNL     1      31.420  62.622  22.443  0.00  0.00    +0.066 C 
ATOM     22  C   UNL     1      31.099  64.124  22.152  0.00  0.00    -0.064 C 
ATOM     23  N   UNL     1      32.232  64.734  21.326  0.00  0.00    +0.379 N 
ATOM     24  C   UNL     1      31.905  66.130  21.001  0.00  0.00    -0.096 C 
ATOM     25  H   UNL     1      32.294  64.169  20.367  0.00  0.00    -0.082 HD
ATOM     26  C   UNL     1      33.570  64.585  22.037  0.00  0.00    -0.064 C 
ATOM     27  C   UNL     1      33.866  63.091  22.348  0.00  0.00    +0.066 C 
ENDBRANCH  19  20
ENDBRANCH  18  19
ENDBRANCH  14  15
ENDBRANCH  12  13
TORSDOF 6
ENDMDL
MODEL 3
REMARK VINA RESULT:      -7.2      2.719     12.811
REMARK  Name = C:\Users\Docking\Desktop\test protocol\1iep_ligandH.pdb
REMARK  8 active torsions:
REMARK  status: ('A' for Active; 'I' for Inactive)
REMARK    1  A    between atoms: _5  and  _11
REMARK    2  A    between atoms: _19  and  _21
REMARK    3  A    between atoms: _22  and  _66
REMARK    4  A    between atoms: _27  and  _30
REMARK    5  A    between atoms: _32  and  _33
REMARK    6  A    between atoms: _38  and  _43
REMARK    7  A    between atoms: _43  and  _46
REMARK    8  A    between atoms: _53  and  _55
REMARK                            x       y       z     vdW  Elec       q    Type
REMARK                         _______ _______ _______ _____ _____    ______ ____
ROOT
ATOM     10  C   UNL     1      24.721  41.043  18.158  0.00  0.00    +0.038 A 
ATOM     11  C   UNL     1      23.881  41.074  17.015  0.00  0.00    +0.047 A 
ATOM     12  C   UNL     1      24.034  40.104  15.943  0.00  0.00    +0.035 A 
ATOM     32  C   UNL     1      25.050  39.112  16.068  0.00  0.00    +0.024 A 
ATOM     33  C   UNL     1      25.913  39.066  17.222  0.00  0.00    +0.007 A 
ATOM     34  C   UNL     1      25.769  40.022  18.283  0.00  0.00    -0.029 A 
ATOM     35  C   UNL     1      26.726  39.929  19.494  0.00  0.00    +0.045 C 
ENDROOT
BRANCH  10   9
ATOM      4  C   UNL     1      25.080  45.516  19.861  0.00  0.00    +0.077 A 
ATOM      5  C   UNL     1      25.726  45.981  18.668  0.00  0.00    +0.048 A 
ATOM      6  C   UNL     1      25.954  45.036  17.643  0.00  0.00    +0.116 A 
ATOM      7  N   UNL     1      25.560  43.726  17.809  0.00  0.00    -0.223 NA
ATOM      8  C   UNL     1      24.941  43.310  18.973  0.00  0.00    +0.220 A 
ATOM      9  N   UNL     1      24.530  41.999  19.158  0.00  0.00    -0.283 N 
ATOM     36  H   UNL     1      24.084  41.730  20.035  0.00  0.00    +0.155 HD
ATOM     37  N   UNL     1      24.714  44.193  19.968  0.00  0.00    -0.214 NA
BRANCH   4   3
ATOM      1  C   UNL     1      24.438  48.652  22.109  0.00  0.00    +0.020 A 
ATOM      2  C   UNL     1      24.746  47.849  20.948  0.00  0.00    +0.013 A 
ATOM      3  C   UNL     1      24.767  46.395  21.032  0.00  0.00    +0.019 A 
ATOM     38  C   UNL     1      24.467  45.778  22.316  0.00  0.00    +0.120 A 
ATOM     39  N   UNL     1      24.175  46.577  23.417  0.00  0.00    -0.263 NA
ATOM     40  C   UNL     1      24.154  47.978  23.348  0.00  0.00    +0.111 A 
ENDBRANCH   4   3
ENDBRANCH  10   9
BRANCH  12  13
ATOM     13  N   UNL     1      23.217  40.092  14.755  0.00  0.00    -0.281 N 
ATOM     14  C   UNL     1      23.629  40.197  13.436  0.00  0.00    +0.248 C 
ATOM     30  O   UNL     1      24.751  40.534  13.088  0.00  0.00    -0.270 OA
ATOM     31  H   UNL     1      22.212  39.994  14.904  0.00  0.00    +0.155 HD
BRANCH  14  15
ATOM     15  C   UNL     1      22.649  39.899  12.348  0.00  0.00    +0.037 A 
ATOM     16  C   UNL     1      22.730  38.659  11.571  0.00  0.00    +0.013 A 
ATOM     17  C   UNL     1      21.782  38.404  10.515  0.00  0.00    +0.005 A 
ATOM     18  C   UNL     1      20.744  39.392  10.230  0.00  0.00    -0.033 A 
ATOM     28  C   UNL     1      20.684  40.611  11.020  0.00  0.00    +0.005 A 
ATOM     29  C   UNL     1      21.611  40.865  12.055  0.00  0.00    +0.013 A 
BRANCH  18  19
ATOM     19  C   UNL     1      19.705  39.213   9.108  0.00  0.00    +0.119 C 
BRANCH  19  20
ATOM     20  N   UNL     1      18.275  39.475   9.452  0.00  0.00    -0.302 NA
ATOM     21  C   UNL     1      17.733  38.462  10.464  0.00  0.00    +0.066 C 
ATOM     22  C   UNL     1      16.243  38.765  10.830  0.00  0.00    -0.064 C 
ATOM     23  N   UNL     1      15.398  38.762   9.555  0.00  0.00    +0.379 N 
ATOM     24  C   UNL     1      13.987  38.989   9.902  0.00  0.00    -0.096 C 
ATOM     25  H   UNL     1      15.475  37.748   9.100  0.00  0.00    -0.082 HD
ATOM     26  C   UNL     1      15.932  39.765   8.542  0.00  0.00    -0.064 C 
ATOM     27  C   UNL     1      17.421  39.473   8.208  0.00  0.00    +0.066 C 
ENDBRANCH  19  20
ENDBRANCH  18  19
ENDBRANCH  14  15
ENDBRANCH  12  13
TORSDOF 6
ENDMDL
MODEL 4
REMARK VINA RESULT:      -7.2      9.788     17.967
REMARK  Name = C:\Users\Docking\Desktop\test protocol\1iep_ligandH.pdb
REMARK  8 active torsions:
REMARK  status: ('A' for Active; 'I' for Inactive)
REMARK    1  A    between atoms: _5  and  _11
REMARK    2  A    between atoms: _19  and  _21
REMARK    3  A    between atoms: _22  and  _66
REMARK    4  A    between atoms: _27  and  _30
REMARK    5  A    between atoms: _32  and  _33
REMARK    6  A    between atoms: _38  and  _43
REMARK    7  A    between atoms: _43  and  _46
REMARK    8  A    between atoms: _53  and  _55
REMARK                            x       y       z     vdW  Elec       q    Type
REMARK                         _______ _______ _______ _____ _____    ______ ____
ROOT
ATOM     10  C   UNL     1      29.397  58.361  26.921  0.00  0.00    +0.038 A 
ATOM     11  C   UNL     1      28.668  57.282  26.360  0.00  0.00    +0.047 A 
ATOM     12  C   UNL     1      28.255  56.149  27.173  0.00  0.00    +0.035 A 
ATOM     32  C   UNL     1      28.599  56.150  28.557  0.00  0.00    +0.024 A 
ATOM     33  C   UNL     1      29.341  57.238  29.143  0.00  0.00    +0.007 A 
ATOM     34  C   UNL     1      29.754  58.357  28.345  0.00  0.00    -0.029 A 
ATOM     35  C   UNL     1      30.553  59.492  29.026  0.00  0.00    +0.045 C 
ENDROOT
BRANCH  10   9
ATOM      4  C   UNL     1      32.219  60.336  23.578  0.00  0.00    +0.077 A 
ATOM      5  C   UNL     1      33.039  59.162  23.492  0.00  0.00    +0.048 A 
ATOM      6  C   UNL     1      32.705  58.074  24.330  0.00  0.00    +0.116 A 
ATOM      7  N   UNL     1      31.629  58.165  25.186  0.00  0.00    -0.223 NA
ATOM      8  C   UNL     1      30.860  59.313  25.245  0.00  0.00    +0.220 A 
ATOM      9  N   UNL     1      29.769  59.423  26.093  0.00  0.00    -0.283 N 
ATOM     36  H   UNL     1      29.231  60.289  26.113  0.00  0.00    +0.155 HD
ATOM     37  N   UNL     1      31.159  60.366  24.456  0.00  0.00    -0.214 NA
BRANCH   4   3
ATOM      1  C   UNL     1      33.841  63.018  21.238  0.00  0.00    +0.020 A 
ATOM      2  C   UNL     1      33.677  61.814  22.020  0.00  0.00    +0.013 A 
ATOM      3  C   UNL     1      32.442  61.566  22.754  0.00  0.00    +0.019 A 
ATOM     38  C   UNL     1      31.386  62.564  22.676  0.00  0.00    +0.120 A 
ATOM     39  N   UNL     1      31.574  63.714  21.917  0.00  0.00    -0.263 NA
ATOM     40  C   UNL     1      32.758  63.965  21.207  0.00  0.00    +0.111 A 
ENDBRANCH   4   3
ENDBRANCH  10   9
BRANCH  12  13
ATOM     13  N   UNL     1      27.519  55.021  26.657  0.00  0.00    -0.281 N 
ATOM     14  C   UNL     1      28.016  53.790  26.262  0.00  0.00    +0.248 C 
ATOM     30  O   UNL     1      29.201  53.545  26.091  0.00  0.00    -0.270 OA
ATOM     31  H   UNL     1      26.510  55.146  26.573  0.00  0.00    +0.155 HD
BRANCH  14  15
ATOM     15  C   UNL     1      27.056  52.673  26.006  0.00  0.00    +0.037 A 
ATOM     16  C   UNL     1      25.608  52.898  26.014  0.00  0.00    +0.013 A 
ATOM     17  C   UNL     1      24.704  51.800  25.780  0.00  0.00    +0.005 A 
ATOM     18  C   UNL     1      25.246  50.466  25.535  0.00  0.00    -0.033 A 
ATOM     28  C   UNL     1      26.687  50.272  25.527  0.00  0.00    +0.005 A 
ATOM     29  C   UNL     1      27.576  51.346  25.757  0.00  0.00    +0.013 A 
BRANCH  18  19
ATOM     19  C   UNL     1      24.356  49.232  25.297  0.00  0.00    +0.119 C 
BRANCH  19  20
ATOM     20  N   UNL     1      24.782  48.276  24.233  0.00  0.00    -0.302 NA
ATOM     21  C   UNL     1      24.187  48.632  22.868  0.00  0.00    +0.066 C 
ATOM     22  C   UNL     1      24.661  47.635  21.762  0.00  0.00    -0.064 C 
ATOM     23  N   UNL     1      24.277  46.210  22.165  0.00  0.00    +0.379 N 
ATOM     24  C   UNL     1      24.671  45.276  21.100  0.00  0.00    -0.096 C 
ATOM     25  H   UNL     1      23.167  46.172  22.255  0.00  0.00    -0.082 HD
ATOM     26  C   UNL     1      24.864  45.848  23.522  0.00  0.00    -0.064 C 
ATOM     27  C   UNL     1      24.409  46.863  24.608  0.00  0.00    +0.066 C 
ENDBRANCH  19  20
ENDBRANCH  18  19
ENDBRANCH  14  15
ENDBRANCH  12  13
TORSDOF 6
ENDMDL
MODEL 5
REMARK VINA RESULT:      -6.9      6.374     11.422
REMARK  Name = C:\Users\Docking\Desktop\test protocol\1iep_ligandH.pdb
REMARK  8 active torsions:
REMARK  status: ('A' for Active; 'I' for Inactive)
REMARK    1  A    between atoms: _5  and  _11
REMARK    2  A    between atoms: _19  and  _21
REMARK    3  A    between atoms: _22  and  _66
REMARK    4  A    between atoms: _27  and  _30
REMARK    5  A    between atoms: _32  and  _33
REMARK    6  A    between atoms: _38  and  _43
REMARK    7  A    between atoms: _43  and  _46
REMARK    8  A    between atoms: _53  and  _55
REMARK                            x       y       z     vdW  Elec       q    Type
REMARK                         _______ _______ _______ _____ _____    ______ ____
ROOT
ATOM     10  C   UNL     1      23.671  49.311  24.773  0.00  0.00    +0.038 A 
ATOM     11  C   UNL     1      24.758  50.186  25.028  0.00  0.00    +0.047 A 
ATOM     12  C   UNL     1      24.806  50.995  26.236  0.00  0.00    +0.035 A 
ATOM     32  C   UNL     1      23.730  50.886  27.165  0.00  0.00    +0.024 A 
ATOM     33  C   UNL     1      22.617  50.003  26.922  0.00  0.00    +0.007 A 
ATOM     34  C   UNL     1      22.563  49.204  25.731  0.00  0.00    -0.029 A 
ATOM     35  C   UNL     1      21.342  48.279  25.518  0.00  0.00    +0.045 C 
ENDROOT
BRANCH  10   9
ATOM      4  C   UNL     1      24.684  45.319  22.309  0.00  0.00    +0.077 A 
ATOM      5  C   UNL     1      25.277  44.692  23.455  0.00  0.00    +0.048 A 
ATOM      6  C   UNL     1      25.308  45.433  24.657  0.00  0.00    +0.116 A 
ATOM      7  N   UNL     1      24.781  46.706  24.699  0.00  0.00    -0.223 NA
ATOM      8  C   UNL     1      24.218  47.282  23.576  0.00  0.00    +0.220 A 
ATOM      9  N   UNL     1      23.676  48.558  23.597  0.00  0.00    -0.283 N 
ATOM     36  H   UNL     1      23.277  48.951  22.745  0.00  0.00    +0.155 HD
ATOM     37  N   UNL     1      24.178  46.596  22.415  0.00  0.00    -0.214 NA
BRANCH   4   3
ATOM      1  C   UNL     1      23.977  42.723  19.470  0.00  0.00    +0.020 A 
ATOM      2  C   UNL     1      24.063  43.310  20.787  0.00  0.00    +0.013 A 
ATOM      3  C   UNL     1      24.574  44.663  20.968  0.00  0.00    +0.019 A 
ATOM     38  C   UNL     1      24.991  45.402  19.785  0.00  0.00    +0.120 A 
ATOM     39  N   UNL     1      24.898  44.810  18.529  0.00  0.00    -0.263 NA
ATOM     40  C   UNL     1      24.410  43.508  18.344  0.00  0.00    +0.111 A 
ENDBRANCH   4   3
ENDBRANCH  10   9
BRANCH  12  13
ATOM     13  N   UNL     1      25.879  51.907  26.545  0.00  0.00    -0.281 N 
ATOM     14  C   UNL     1      27.168  51.908  26.036  0.00  0.00    +0.248 C 
ATOM     30  O   UNL     1      27.659  50.991  25.395  0.00  0.00    -0.270 OA
ATOM     31  H   UNL     1      25.663  52.640  27.220  0.00  0.00    +0.155 HD
BRANCH  14  15
ATOM     15  C   UNL     1      28.042  53.094  26.288  0.00  0.00    +0.037 A 
ATOM     16  C   UNL     1      29.495  53.017  26.117  0.00  0.00    +0.013 A 
ATOM     17  C   UNL     1      30.317  54.170  26.383  0.00  0.00    +0.005 A 
ATOM     18  C   UNL     1      29.687  55.413  26.823  0.00  0.00    -0.033 A 
ATOM     28  C   UNL     1      28.242  55.463  26.980  0.00  0.00    +0.005 A 
ATOM     29  C   UNL     1      27.434  54.334  26.721  0.00  0.00    +0.013 A 
BRANCH  18  19
ATOM     19  C   UNL     1      30.488  56.687  27.150  0.00  0.00    +0.119 C 
BRANCH  19  20
ATOM     20  N   UNL     1      30.403  57.817  26.177  0.00  0.00    -0.302 NA
ATOM     21  C   UNL     1      31.185  57.529  24.893  0.00  0.00    +0.066 C 
ATOM     22  C   UNL     1      31.067  58.711  23.877  0.00  0.00    -0.064 C 
ATOM     23  N   UNL     1      31.565  59.999  24.537  0.00  0.00    +0.379 N 
ATOM     24  C   UNL     1      31.509  61.101  23.566  0.00  0.00    -0.096 C 
ATOM     25  H   UNL     1      32.633  59.845  24.815  0.00  0.00    -0.082 HD
ATOM     26  C   UNL     1      30.794  60.291  25.817  0.00  0.00    -0.064 C 
ATOM     27  C   UNL     1      30.893  59.097  26.807  0.00  0.00    +0.066 C 
ENDBRANCH  19  20
ENDBRANCH  18  19
ENDBRANCH  14  15
ENDBRANCH  12  13
TORSDOF 6
ENDMDL
