MODEL 1
REMARK VINA RESULT:     -10.7      0.000      0.000
REMARK  Name = C:\Users\Docking\Desktop\test protocol\1iep_ligandH.pdb
REMARK  8 active torsions:
REMARK  status: ('A' for Active; 'I' for Inactive)
REMARK    1  A    between atoms: _5  and  _11
REMARK    2  A    between atoms: _19  and  _21
REMARK    3  A    between atoms: _22  and  _66
REMARK    4  A    between atoms: _27  and  _30
REMARK    5  A    between atoms: _32  and  _33
REMARK    6  A    between atoms: _38  and  _43
REMARK    7  A    between atoms: _43  and  _46
REMARK    8  A    between atoms: _53  and  _55
REMARK                            x       y       z     vdW  Elec       q    Type
REMARK                         _______ _______ _______ _____ _____    ______ ____
ROOT
ATOM     10  C   UNL     1      56.174  60.841  87.079  0.00  0.00    +0.038 A 
ATOM     11  C   UNL     1      55.372  61.631  87.942  0.00  0.00    +0.047 A 
ATOM     12  C   UNL     1      54.888  62.939  87.531  0.00  0.00    +0.035 A 
ATOM     32  C   UNL     1      55.238  63.412  86.233  0.00  0.00    +0.024 A 
ATOM     33  C   UNL     1      56.053  62.623  85.343  0.00  0.00    +0.007 A 
ATOM     34  C   UNL     1      56.535  61.332  85.744  0.00  0.00    -0.029 A 
ATOM     35  C   UNL     1      57.411  60.533  84.751  0.00  0.00    +0.045 C 
ENDROOT
BRANCH  10   9
ATOM      4  C   UNL     1      59.472  57.970  89.059  0.00  0.00    +0.077 A 
ATOM      5  C   UNL     1      60.413  59.045  89.192  0.00  0.00    +0.048 A 
ATOM      6  C   UNL     1      60.012  60.319  88.732  0.00  0.00    +0.116 A 
ATOM      7  N   UNL     1      58.761  60.494  88.182  0.00  0.00    -0.223 NA
ATOM      8  C   UNL     1      57.878  59.437  88.067  0.00  0.00    +0.220 A 
ATOM      9  N   UNL     1      56.612  59.592  87.525  0.00  0.00    -0.283 N 
ATOM     36  H   UNL     1      55.993  58.785  87.450  0.00  0.00    +0.155 HD
ATOM     37  N   UNL     1      58.238  58.209  88.497  0.00  0.00    -0.214 NA
BRANCH   4   3
ATOM      1  C   UNL     1      60.253  54.137  89.046  0.00  0.00    +0.020 A 
ATOM      2  C   UNL     1      59.991  55.475  88.567  0.00  0.00    +0.013 A 
ATOM      3  C   UNL     1      59.747  56.567  89.501  0.00  0.00    +0.019 A 
ATOM     38  C   UNL     1      59.776  56.269  90.925  0.00  0.00    +0.120 A 
ATOM     39  N   UNL     1      60.029  54.971  91.357  0.00  0.00    -0.263 NA
ATOM     40  C   UNL     1      60.263  53.912  90.467  0.00  0.00    +0.111 A 
ENDBRANCH   4   3
ENDBRANCH  10   9
BRANCH  12  13
ATOM     13  N   UNL     1      54.077  63.789  88.368  0.00  0.00    -0.281 N 
ATOM     14  C   UNL     1      54.448  64.964  89.001  0.00  0.00    +0.248 C 
ATOM     30  O   UNL     1      55.601  65.352  89.119  0.00  0.00    -0.270 OA
ATOM     31  H   UNL     1      53.113  63.488  88.510  0.00  0.00    +0.155 HD
BRANCH  14  15
ATOM     15  C   UNL     1      53.385  65.826  89.604  0.00  0.00    +0.037 A 
ATOM     16  C   UNL     1      52.727  66.877  88.825  0.00  0.00    +0.013 A 
ATOM     17  C   UNL     1      51.718  67.705  89.436  0.00  0.00    +0.005 A 
ATOM     18  C   UNL     1      51.359  67.483  90.834  0.00  0.00    -0.033 A 
ATOM     28  C   UNL     1      52.024  66.429  91.582  0.00  0.00    +0.005 A 
ATOM     29  C   UNL     1      53.015  65.616  90.987  0.00  0.00    +0.013 A 
BRANCH  18  19
ATOM     19  C   UNL     1      50.308  68.333  91.573  0.00  0.00    +0.119 C 
BRANCH  19  20
ATOM     20  N   UNL     1      49.378  67.618  92.498  0.00  0.00    -0.302 NA
ATOM     21  C   UNL     1      48.396  66.718  91.742  0.00  0.00    +0.066 C 
ATOM     22  C   UNL     1      47.446  65.960  92.725  0.00  0.00    -0.064 C 
ATOM     23  N   UNL     1      46.695  66.976  93.588  0.00  0.00    +0.379 N 
ATOM     24  C   UNL     1      45.758  66.270  94.474  0.00  0.00    -0.096 C 
ATOM     25  H   UNL     1      46.095  67.621  92.906  0.00  0.00    -0.082 HD
ATOM     26  C   UNL     1      47.664  67.877  94.341  0.00  0.00    -0.064 C 
ATOM     27  C   UNL     1      48.623  68.602  93.357  0.00  0.00    +0.066 C 
ENDBRANCH  19  20
ENDBRANCH  18  19
ENDBRANCH  14  15
ENDBRANCH  12  13
TORSDOF 6
ENDMDL
MODEL 2
REMARK VINA RESULT:     -10.6      2.199      2.910
REMARK  Name = C:\Users\Docking\Desktop\test protocol\1iep_ligandH.pdb
REMARK  8 active torsions:
REMARK  status: ('A' for Active; 'I' for Inactive)
REMARK    1  A    between atoms: _5  and  _11
REMARK    2  A    between atoms: _19  and  _21
REMARK    3  A    between atoms: _22  and  _66
REMARK    4  A    between atoms: _27  and  _30
REMARK    5  A    between atoms: _32  and  _33
REMARK    6  A    between atoms: _38  and  _43
REMARK    7  A    between atoms: _43  and  _46
REMARK    8  A    between atoms: _53  and  _55
REMARK                            x       y       z     vdW  Elec       q    Type
REMARK                         _______ _______ _______ _____ _____    ______ ____
ROOT
ATOM     10  C   UNL     1      54.331  62.092  87.520  0.00  0.00    +0.038 A 
ATOM     11  C   UNL     1      53.459  62.636  88.497  0.00  0.00    +0.047 A 
ATOM     12  C   UNL     1      53.271  64.073  88.621  0.00  0.00    +0.035 A 
ATOM     32  C   UNL     1      53.986  64.927  87.732  0.00  0.00    +0.024 A 
ATOM     33  C   UNL     1      54.877  64.391  86.734  0.00  0.00    +0.007 A 
ATOM     34  C   UNL     1      55.068  62.975  86.608  0.00  0.00    -0.029 A 
ATOM     35  C   UNL     1      56.042  62.456  85.524  0.00  0.00    +0.045 C 
ENDROOT
BRANCH  10   9
ATOM      4  C   UNL     1      56.612  58.007  88.591  0.00  0.00    +0.077 A 
ATOM      5  C   UNL     1      57.621  58.698  89.342  0.00  0.00    +0.048 A 
ATOM      6  C   UNL     1      57.520  60.105  89.422  0.00  0.00    +0.116 A 
ATOM      7  N   UNL     1      56.484  60.762  88.795  0.00  0.00    -0.223 NA
ATOM      8  C   UNL     1      55.529  60.065  88.077  0.00  0.00    +0.220 A 
ATOM      9  N   UNL     1      54.473  60.704  87.445  0.00  0.00    -0.283 N 
ATOM     36  H   UNL     1      53.793  60.156  86.919  0.00  0.00    +0.155 HD
ATOM     37  N   UNL     1      55.603  58.721  87.984  0.00  0.00    -0.214 NA
BRANCH   4   3
ATOM      1  C   UNL     1      56.752  54.428  87.018  0.00  0.00    +0.020 A 
ATOM      2  C   UNL     1      56.793  55.868  87.131  0.00  0.00    +0.013 A 
ATOM      3  C   UNL     1      56.580  56.520  88.417  0.00  0.00    +0.019 A 
ATOM     38  C   UNL     1      56.326  55.680  89.578  0.00  0.00    +0.120 A 
ATOM     39  N   UNL     1      56.291  54.296  89.438  0.00  0.00    -0.263 NA
ATOM     40  C   UNL     1      56.493  53.658  88.205  0.00  0.00    +0.111 A 
ENDBRANCH   4   3
ENDBRANCH  10   9
BRANCH  12  13
ATOM     13  N   UNL     1      52.405  64.684  89.599  0.00  0.00    -0.281 N 
ATOM     14  C   UNL     1      52.764  65.456  90.692  0.00  0.00    +0.248 C 
ATOM     30  O   UNL     1      53.905  65.562  91.117  0.00  0.00    -0.270 OA
ATOM     31  H   UNL     1      51.405  64.527  89.471  0.00  0.00    +0.155 HD
BRANCH  14  15
ATOM     15  C   UNL     1      51.702  66.208  91.426  0.00  0.00    +0.037 A 
ATOM     16  C   UNL     1      50.857  65.548  92.425  0.00  0.00    +0.013 A 
ATOM     17  C   UNL     1      49.828  66.292  93.107  0.00  0.00    +0.005 A 
ATOM     18  C   UNL     1      49.639  67.706  92.792  0.00  0.00    -0.033 A 
ATOM     28  C   UNL     1      50.494  68.337  91.800  0.00  0.00    +0.005 A 
ATOM     29  C   UNL     1      51.503  67.610  91.129  0.00  0.00    +0.013 A 
BRANCH  18  19
ATOM     19  C   UNL     1      48.551  68.573  93.454  0.00  0.00    +0.119 C 
BRANCH  19  20
ATOM     20  N   UNL     1      47.398  67.861  94.082  0.00  0.00    -0.302 NA
ATOM     21  C   UNL     1      46.325  67.489  93.056  0.00  0.00    +0.066 C 
ATOM     22  C   UNL     1      45.137  66.725  93.726  0.00  0.00    -0.064 C 
ATOM     23  N   UNL     1      44.544  67.588  94.841  0.00  0.00    +0.379 N 
ATOM     24  C   UNL     1      43.390  66.897  95.435  0.00  0.00    -0.096 C 
ATOM     25  H   UNL     1      44.172  68.531  94.377  0.00  0.00    -0.082 HD
ATOM     26  C   UNL     1      45.605  67.965  95.865  0.00  0.00    -0.064 C 
ATOM     27  C   UNL     1      46.795  68.697  95.184  0.00  0.00    +0.066 C 
ENDBRANCH  19  20
ENDBRANCH  18  19
ENDBRANCH  14  15
ENDBRANCH  12  13
TORSDOF 6
ENDMDL
MODEL 3
REMARK VINA RESULT:     -10.6      3.331      3.820
REMARK  Name = C:\Users\Docking\Desktop\test protocol\1iep_ligandH.pdb
REMARK  8 active torsions:
REMARK  status: ('A' for Active; 'I' for Inactive)
REMARK    1  A    between atoms: _5  and  _11
REMARK    2  A    between atoms: _19  and  _21
REMARK    3  A    between atoms: _22  and  _66
REMARK    4  A    between atoms: _27  and  _30
REMARK    5  A    between atoms: _32  and  _33
REMARK    6  A    between atoms: _38  and  _43
REMARK    7  A    between atoms: _43  and  _46
REMARK    8  A    between atoms: _53  and  _55
REMARK                            x       y       z     vdW  Elec       q    Type
REMARK                         _______ _______ _______ _____ _____    ______ ____
ROOT
ATOM     10  C   UNL     1      55.700  58.520  86.805  0.00  0.00    +0.038 A 
ATOM     11  C   UNL     1      54.791  59.486  87.307  0.00  0.00    +0.047 A 
ATOM     12  C   UNL     1      55.111  60.905  87.284  0.00  0.00    +0.035 A 
ATOM     32  C   UNL     1      56.367  61.305  86.740  0.00  0.00    +0.024 A 
ATOM     33  C   UNL     1      57.303  60.337  86.227  0.00  0.00    +0.007 A 
ATOM     34  C   UNL     1      56.994  58.936  86.249  0.00  0.00    -0.029 A 
ATOM     35  C   UNL     1      58.038  57.941  85.691  0.00  0.00    +0.045 C 
ENDROOT
BRANCH  10   9
ATOM      4  C   UNL     1      55.784  54.187  88.867  0.00  0.00    +0.077 A 
ATOM      5  C   UNL     1      56.638  54.642  89.926  0.00  0.00    +0.048 A 
ATOM      6  C   UNL     1      57.039  55.996  89.900  0.00  0.00    +0.116 A 
ATOM      7  N   UNL     1      56.611  56.825  88.885  0.00  0.00    -0.223 NA
ATOM      8  C   UNL     1      55.790  56.354  87.878  0.00  0.00    +0.220 A 
ATOM      9  N   UNL     1      55.341  57.171  86.852  0.00  0.00    -0.283 N 
ATOM     36  H   UNL     1      54.742  56.784  86.124  0.00  0.00    +0.155 HD
ATOM     37  N   UNL     1      55.394  55.064  87.880  0.00  0.00    -0.214 NA
BRANCH   4   3
ATOM      1  C   UNL     1      53.471  51.093  88.250  0.00  0.00    +0.020 A 
ATOM      2  C   UNL     1      53.914  52.466  88.339  0.00  0.00    +0.013 A 
ATOM      3  C   UNL     1      55.274  52.783  88.758  0.00  0.00    +0.019 A 
ATOM     38  C   UNL     1      56.167  51.681  89.081  0.00  0.00    +0.120 A 
ATOM     39  N   UNL     1      55.711  50.369  88.987  0.00  0.00    -0.263 NA
ATOM     40  C   UNL     1      54.405  50.052  88.587  0.00  0.00    +0.111 A 
ENDBRANCH   4   3
ENDBRANCH  10   9
BRANCH  12  13
ATOM     13  N   UNL     1      54.232  61.930  87.787  0.00  0.00    -0.281 N 
ATOM     14  C   UNL     1      53.769  62.096  89.082  0.00  0.00    +0.248 C 
ATOM     30  O   UNL     1      53.872  61.257  89.966  0.00  0.00    -0.270 OA
ATOM     31  H   UNL     1      53.911  62.618  87.105  0.00  0.00    +0.155 HD
BRANCH  14  15
ATOM     15  C   UNL     1      53.079  63.371  89.445  0.00  0.00    +0.037 A 
ATOM     16  C   UNL     1      52.708  64.352  88.423  0.00  0.00    +0.013 A 
ATOM     17  C   UNL     1      52.059  65.582  88.802  0.00  0.00    +0.005 A 
ATOM     18  C   UNL     1      51.774  65.836  90.212  0.00  0.00    -0.033 A 
ATOM     28  C   UNL     1      52.148  64.843  91.205  0.00  0.00    +0.005 A 
ATOM     29  C   UNL     1      52.786  63.637  90.838  0.00  0.00    +0.013 A 
BRANCH  18  19
ATOM     19  C   UNL     1      51.104  67.130  90.710  0.00  0.00    +0.119 C 
BRANCH  19  20
ATOM     20  N   UNL     1      49.958  66.986  91.656  0.00  0.00    -0.302 NA
ATOM     21  C   UNL     1      48.858  66.082  91.093  0.00  0.00    +0.066 C 
ATOM     22  C   UNL     1      47.677  65.924  92.106  0.00  0.00    -0.064 C 
ATOM     23  N   UNL     1      47.118  67.305  92.452  0.00  0.00    +0.379 N 
ATOM     24  C   UNL     1      45.970  67.156  93.359  0.00  0.00    -0.096 C 
ATOM     25  H   UNL     1      46.746  67.765  91.507  0.00  0.00    -0.082 HD
ATOM     26  C   UNL     1      48.205  68.212  93.010  0.00  0.00    -0.064 C 
ATOM     27  C   UNL     1      49.387  68.338  92.009  0.00  0.00    +0.066 C 
ENDBRANCH  19  20
ENDBRANCH  18  19
ENDBRANCH  14  15
ENDBRANCH  12  13
TORSDOF 6
ENDMDL
MODEL 4
REMARK VINA RESULT:     -10.4      2.041      2.473
REMARK  Name = C:\Users\Docking\Desktop\test protocol\1iep_ligandH.pdb
REMARK  8 active torsions:
REMARK  status: ('A' for Active; 'I' for Inactive)
REMARK    1  A    between atoms: _5  and  _11
REMARK    2  A    between atoms: _19  and  _21
REMARK    3  A    between atoms: _22  and  _66
REMARK    4  A    between atoms: _27  and  _30
REMARK    5  A    between atoms: _32  and  _33
REMARK    6  A    between atoms: _38  and  _43
REMARK    7  A    between atoms: _43  and  _46
REMARK    8  A    between atoms: _53  and  _55
REMARK                            x       y       z     vdW  Elec       q    Type
REMARK                         _______ _______ _______ _____ _____    ______ ____
ROOT
ATOM     10  C   UNL     1      55.883  59.666  88.403  0.00  0.00    +0.038 A 
ATOM     11  C   UNL     1      55.252  60.788  88.998  0.00  0.00    +0.047 A 
ATOM     12  C   UNL     1      55.149  62.056  88.293  0.00  0.00    +0.035 A 
ATOM     32  C   UNL     1      55.699  62.146  86.981  0.00  0.00    +0.024 A 
ATOM     33  C   UNL     1      56.345  61.016  86.361  0.00  0.00    +0.007 A 
ATOM     34  C   UNL     1      56.451  59.763  87.053  0.00  0.00    -0.029 A 
ATOM     35  C   UNL     1      57.161  58.588  86.342  0.00  0.00    +0.045 C 
ENDROOT
BRANCH  10   9
ATOM      4  C   UNL     1      57.755  56.918  91.864  0.00  0.00    +0.077 A 
ATOM      5  C   UNL     1      58.690  57.936  92.248  0.00  0.00    +0.048 A 
ATOM      6  C   UNL     1      58.662  59.150  91.525  0.00  0.00    +0.116 A 
ATOM      7  N   UNL     1      57.761  59.322  90.497  0.00  0.00    -0.223 NA
ATOM      8  C   UNL     1      56.874  58.319  90.151  0.00  0.00    +0.220 A 
ATOM      9  N   UNL     1      55.954  58.473  89.125  0.00  0.00    -0.283 N 
ATOM     36  H   UNL     1      55.322  57.707  88.895  0.00  0.00    +0.155 HD
ATOM     37  N   UNL     1      56.882  57.150  90.825  0.00  0.00    -0.214 NA
BRANCH   4   3
ATOM      1  C   UNL     1      57.556  54.110  94.580  0.00  0.00    +0.020 A 
ATOM      2  C   UNL     1      57.649  55.422  93.983  0.00  0.00    +0.013 A 
ATOM      3  C   UNL     1      57.661  55.583  92.534  0.00  0.00    +0.019 A 
ATOM     38  C   UNL     1      57.575  54.385  91.711  0.00  0.00    +0.120 A 
ATOM     39  N   UNL     1      57.487  53.134  92.314  0.00  0.00    -0.263 NA
ATOM     40  C   UNL     1      57.477  52.968  93.707  0.00  0.00    +0.111 A 
ENDBRANCH   4   3
ENDBRANCH  10   9
BRANCH  12  13
ATOM     13  N   UNL     1      54.526  63.231  88.850  0.00  0.00    -0.281 N 
ATOM     14  C   UNL     1      54.155  64.392  88.192  0.00  0.00    +0.248 C 
ATOM     30  O   UNL     1      54.499  64.681  87.055  0.00  0.00    -0.270 OA
ATOM     31  H   UNL     1      54.336  63.204  89.852  0.00  0.00    +0.155 HD
BRANCH  14  15
ATOM     15  C   UNL     1      53.289  65.380  88.903  0.00  0.00    +0.037 A 
ATOM     16  C   UNL     1      52.788  66.579  88.225  0.00  0.00    +0.013 A 
ATOM     17  C   UNL     1      51.968  67.525  88.939  0.00  0.00    +0.005 A 
ATOM     18  C   UNL     1      51.642  67.275  90.341  0.00  0.00    -0.033 A 
ATOM     28  C   UNL     1      52.148  66.075  90.988  0.00  0.00    +0.005 A 
ATOM     29  C   UNL     1      52.953  65.146  90.291  0.00  0.00    +0.013 A 
BRANCH  18  19
ATOM     19  C   UNL     1      50.792  68.241  91.187  0.00  0.00    +0.119 C 
BRANCH  19  20
ATOM     20  N   UNL     1      49.810  67.635  92.135  0.00  0.00    -0.302 NA
ATOM     21  C   UNL     1      48.771  66.772  91.413  0.00  0.00    +0.066 C 
ATOM     22  C   UNL     1      47.765  66.128  92.423  0.00  0.00    -0.064 C 
ATOM     23  N   UNL     1      47.083  67.232  93.232  0.00  0.00    +0.379 N 
ATOM     24  C   UNL     1      46.095  66.634  94.142  0.00  0.00    -0.096 C 
ATOM     25  H   UNL     1      46.533  67.886  92.516  0.00  0.00    -0.082 HD
ATOM     26  C   UNL     1      48.109  68.097  93.951  0.00  0.00    -0.064 C 
ATOM     27  C   UNL     1      49.121  68.708  92.942  0.00  0.00    +0.066 C 
ENDBRANCH  19  20
ENDBRANCH  18  19
ENDBRANCH  14  15
ENDBRANCH  12  13
TORSDOF 6
ENDMDL
MODEL 5
REMARK VINA RESULT:     -10.3      1.669      2.188
REMARK  Name = C:\Users\Docking\Desktop\test protocol\1iep_ligandH.pdb
REMARK  8 active torsions:
REMARK  status: ('A' for Active; 'I' for Inactive)
REMARK    1  A    between atoms: _5  and  _11
REMARK    2  A    between atoms: _19  and  _21
REMARK    3  A    between atoms: _22  and  _66
REMARK    4  A    between atoms: _27  and  _30
REMARK    5  A    between atoms: _32  and  _33
REMARK    6  A    between atoms: _38  and  _43
REMARK    7  A    between atoms: _43  and  _46
REMARK    8  A    between atoms: _53  and  _55
REMARK                            x       y       z     vdW  Elec       q    Type
REMARK                         _______ _______ _______ _____ _____    ______ ____
ROOT
ATOM     10  C   UNL     1      57.179  60.946  87.569  0.00  0.00    +0.038 A 
ATOM     11  C   UNL     1      56.264  61.828  88.198  0.00  0.00    +0.047 A 
ATOM     12  C   UNL     1      55.185  62.453  87.449  0.00  0.00    +0.035 A 
ATOM     32  C   UNL     1      55.065  62.155  86.061  0.00  0.00    +0.024 A 
ATOM     33  C   UNL     1      55.987  61.261  85.405  0.00  0.00    +0.007 A 
ATOM     34  C   UNL     1      57.055  60.644  86.138  0.00  0.00    -0.029 A 
ATOM     35  C   UNL     1      58.018  59.699  85.381  0.00  0.00    +0.045 C 
ENDROOT
BRANCH  10   9
ATOM      4  C   UNL     1      58.788  57.712  90.729  0.00  0.00    +0.077 A 
ATOM      5  C   UNL     1      57.486  57.130  90.886  0.00  0.00    +0.048 A 
ATOM      6  C   UNL     1      56.428  57.697  90.140  0.00  0.00    +0.116 A 
ATOM      7  N   UNL     1      56.666  58.766  89.304  0.00  0.00    -0.223 NA
ATOM      8  C   UNL     1      57.933  59.304  89.177  0.00  0.00    +0.220 A 
ATOM      9  N   UNL     1      58.196  60.374  88.336  0.00  0.00    -0.283 N 
ATOM     36  H   UNL     1      59.143  60.748  88.277  0.00  0.00    +0.155 HD
ATOM     37  N   UNL     1      58.960  58.782  89.880  0.00  0.00    -0.214 NA
BRANCH   4   3
ATOM      1  C   UNL     1      62.016  57.567  92.934  0.00  0.00    +0.020 A 
ATOM      2  C   UNL     1      60.849  58.090  92.261  0.00  0.00    +0.013 A 
ATOM      3  C   UNL     1      60.007  57.223  91.447  0.00  0.00    +0.019 A 
ATOM     38  C   UNL     1      60.376  55.820  91.334  0.00  0.00    +0.120 A 
ATOM     39  N   UNL     1      61.506  55.345  91.992  0.00  0.00    -0.263 NA
ATOM     40  C   UNL     1      62.325  56.170  92.776  0.00  0.00    +0.111 A 
ENDBRANCH   4   3
ENDBRANCH  10   9
BRANCH  12  13
ATOM     13  N   UNL     1      54.230  63.363  88.032  0.00  0.00    -0.281 N 
ATOM     14  C   UNL     1      53.403  63.147  89.122  0.00  0.00    +0.248 C 
ATOM     30  O   UNL     1      53.205  62.055  89.633  0.00  0.00    -0.270 OA
ATOM     31  H   UNL     1      54.156  64.278  87.588  0.00  0.00    +0.155 HD
BRANCH  14  15
ATOM     15  C   UNL     1      52.681  64.310  89.723  0.00  0.00    +0.037 A 
ATOM     16  C   UNL     1      52.226  65.431  88.897  0.00  0.00    +0.013 A 
ATOM     17  C   UNL     1      51.547  66.548  89.504  0.00  0.00    +0.005 A 
ATOM     18  C   UNL     1      51.317  66.548  90.947  0.00  0.00    -0.033 A 
ATOM     28  C   UNL     1      51.775  65.420  91.742  0.00  0.00    +0.005 A 
ATOM     29  C   UNL     1      52.442  64.324  91.150  0.00  0.00    +0.013 A 
BRANCH  18  19
ATOM     19  C   UNL     1      50.620  67.707  91.683  0.00  0.00    +0.119 C 
BRANCH  19  20
ATOM     20  N   UNL     1      49.356  67.392  92.413  0.00  0.00    -0.302 NA
ATOM     21  C   UNL     1      48.612  66.208  91.788  0.00  0.00    +0.066 C 
ATOM     22  C   UNL     1      47.303  65.878  92.578  0.00  0.00    -0.064 C 
ATOM     23  N   UNL     1      46.410  67.118  92.621  0.00  0.00    +0.379 N 
ATOM     24  C   UNL     1      45.153  66.794  93.313  0.00  0.00    -0.096 C 
ATOM     25  H   UNL     1      46.157  67.389  91.569  0.00  0.00    -0.082 HD
ATOM     26  C   UNL     1      47.143  68.301  93.238  0.00  0.00    -0.064 C 
ATOM     27  C   UNL     1      48.456  68.602  92.464  0.00  0.00    +0.066 C 
ENDBRANCH  19  20
ENDBRANCH  18  19
ENDBRANCH  14  15
ENDBRANCH  12  13
TORSDOF 6
ENDMDL
