MODEL 1
REMARK VINA RESULT:      -9.2      0.000      0.000
REMARK  Name = C:\Users\Docking\Desktop\test protocol\1iep_ligandH.pdb
REMARK  8 active torsions:
REMARK  status: ('A' for Active; 'I' for Inactive)
REMARK    1  A    between atoms: _5  and  _11
REMARK    2  A    between atoms: _19  and  _21
REMARK    3  A    between atoms: _22  and  _66
REMARK    4  A    between atoms: _27  and  _30
REMARK    5  A    between atoms: _32  and  _33
REMARK    6  A    between atoms: _38  and  _43
REMARK    7  A    between atoms: _43  and  _46
REMARK    8  A    between atoms: _53  and  _55
REMARK                            x       y       z     vdW  Elec       q    Type
REMARK                         _______ _______ _______ _____ _____    ______ ____
ROOT
ATOM     10  C   UNL     1      -0.234  -9.117  25.639  0.00  0.00    +0.038 A 
ATOM     11  C   UNL     1       0.282  -8.767  24.365  0.00  0.00    +0.047 A 
ATOM     12  C   UNL     1      -0.570  -8.183  23.342  0.00  0.00    +0.035 A 
ATOM     32  C   UNL     1      -1.945  -7.967  23.650  0.00  0.00    +0.024 A 
ATOM     33  C   UNL     1      -2.487  -8.318  24.939  0.00  0.00    +0.007 A 
ATOM     34  C   UNL     1      -1.651  -8.897  25.952  0.00  0.00    -0.029 A 
ATOM     35  C   UNL     1      -2.288  -9.260  27.314  0.00  0.00    +0.045 C 
ENDROOT
BRANCH  10   9
ATOM      4  C   UNL     1       2.766  -8.751  29.367  0.00  0.00    +0.077 A 
ATOM      5  C   UNL     1       2.622  -7.325  29.419  0.00  0.00    +0.048 A 
ATOM      6  C   UNL     1       1.771  -6.723  28.464  0.00  0.00    +0.116 A 
ATOM      7  N   UNL     1       1.119  -7.501  27.531  0.00  0.00    -0.223 NA
ATOM      8  C   UNL     1       1.282  -8.873  27.508  0.00  0.00    +0.220 A 
ATOM      9  N   UNL     1       0.629  -9.675  26.584  0.00  0.00    -0.283 N 
ATOM     36  H   UNL     1       0.782 -10.683  26.595  0.00  0.00    +0.155 HD
ATOM     37  N   UNL     1       2.090  -9.472  28.408  0.00  0.00    -0.214 NA
BRANCH   4   3
ATOM      1  C   UNL     1       4.331 -11.675  31.441  0.00  0.00    +0.020 A 
ATOM      2  C   UNL     1       3.474 -10.967  30.518  0.00  0.00    +0.013 A 
ATOM      3  C   UNL     1       3.627  -9.533  30.310  0.00  0.00    +0.019 A 
ATOM     38  C   UNL     1       4.666  -8.839  31.056  0.00  0.00    +0.120 A 
ATOM     39  N   UNL     1       5.476  -9.547  31.939  0.00  0.00    -0.263 NA
ATOM     40  C   UNL     1       5.337 -10.927  32.149  0.00  0.00    +0.111 A 
ENDBRANCH   4   3
ENDBRANCH  10   9
BRANCH  12  13
ATOM     13  N   UNL     1      -0.104  -7.814  22.028  0.00  0.00    -0.281 N 
ATOM     14  C   UNL     1       0.157  -8.647  20.952  0.00  0.00    +0.248 C 
ATOM     30  O   UNL     1       0.232  -9.865  21.023  0.00  0.00    -0.270 OA
ATOM     31  H   UNL     1       0.054  -6.819  21.872  0.00  0.00    +0.155 HD
BRANCH  14  15
ATOM     15  C   UNL     1       0.380  -8.039  19.606  0.00  0.00    +0.037 A 
ATOM     16  C   UNL     1       0.763  -8.861  18.454  0.00  0.00    +0.013 A 
ATOM     17  C   UNL     1       0.989  -8.246  17.170  0.00  0.00    +0.005 A 
ATOM     18  C   UNL     1       0.831  -6.800  17.031  0.00  0.00    -0.033 A 
ATOM     28  C   UNL     1       0.446  -6.010  18.188  0.00  0.00    +0.005 A 
ATOM     29  C   UNL     1       0.225  -6.609  19.448  0.00  0.00    +0.013 A 
BRANCH  18  19
ATOM     19  C   UNL     1       1.073  -6.057  15.703  0.00  0.00    +0.119 C 
BRANCH  19  20
ATOM     20  N   UNL     1       0.868  -6.828  14.441  0.00  0.00    -0.302 NA
ATOM     21  C   UNL     1       1.730  -6.292  13.294  0.00  0.00    +0.066 C 
ATOM     22  C   UNL     1       1.520  -7.124  11.987  0.00  0.00    -0.064 C 
ATOM     23  N   UNL     1       0.038  -7.105  11.606  0.00  0.00    +0.379 N 
ATOM     24  C   UNL     1      -0.154  -7.838  10.346  0.00  0.00    -0.096 C 
ATOM     25  H   UNL     1      -0.251  -6.043  11.428  0.00  0.00    -0.082 HD
ATOM     26  C   UNL     1      -0.826  -7.633  12.742  0.00  0.00    -0.064 C 
ATOM     27  C   UNL     1      -0.588  -6.818  14.044  0.00  0.00    +0.066 C 
ENDBRANCH  19  20
ENDBRANCH  18  19
ENDBRANCH  14  15
ENDBRANCH  12  13
TORSDOF 6
ENDMDL
MODEL 2
REMARK VINA RESULT:      -8.7      7.326     13.829
REMARK  Name = C:\Users\Docking\Desktop\test protocol\1iep_ligandH.pdb
REMARK  8 active torsions:
REMARK  status: ('A' for Active; 'I' for Inactive)
REMARK    1  A    between atoms: _5  and  _11
REMARK    2  A    between atoms: _19  and  _21
REMARK    3  A    between atoms: _22  and  _66
REMARK    4  A    between atoms: _27  and  _30
REMARK    5  A    between atoms: _32  and  _33
REMARK    6  A    between atoms: _38  and  _43
REMARK    7  A    between atoms: _43  and  _46
REMARK    8  A    between atoms: _53  and  _55
REMARK                            x       y       z     vdW  Elec       q    Type
REMARK                         _______ _______ _______ _____ _____    ______ ____
ROOT
ATOM     10  C   UNL     1       0.439  -5.429  19.141  0.00  0.00    +0.038 A 
ATOM     11  C   UNL     1       0.442  -4.023  19.329  0.00  0.00    +0.047 A 
ATOM     12  C   UNL     1       0.229  -3.439  20.644  0.00  0.00    +0.035 A 
ATOM     32  C   UNL     1       0.018  -4.316  21.747  0.00  0.00    +0.024 A 
ATOM     33  C   UNL     1       0.010  -5.748  21.574  0.00  0.00    +0.007 A 
ATOM     34  C   UNL     1       0.217  -6.330  20.279  0.00  0.00    -0.029 A 
ATOM     35  C   UNL     1       0.191  -7.871  20.151  0.00  0.00    +0.045 C 
ENDROOT
BRANCH  10   9
ATOM      4  C   UNL     1      -0.402  -5.466  14.416  0.00  0.00    +0.077 A 
ATOM      5  C   UNL     1      -1.361  -4.403  14.518  0.00  0.00    +0.048 A 
ATOM      6  C   UNL     1      -1.614  -3.880  15.806  0.00  0.00    +0.116 A 
ATOM      7  N   UNL     1      -0.952  -4.388  16.902  0.00  0.00    -0.223 NA
ATOM      8  C   UNL     1      -0.035  -5.415  16.769  0.00  0.00    +0.220 A 
ATOM      9  N   UNL     1       0.648  -5.936  17.857  0.00  0.00    -0.283 N 
ATOM     36  H   UNL     1       1.312  -6.698  17.718  0.00  0.00    +0.155 HD
ATOM     37  N   UNL     1       0.224  -5.933  15.550  0.00  0.00    -0.214 NA
BRANCH   4   3
ATOM      1  C   UNL     1      -0.352  -7.844  11.311  0.00  0.00    +0.020 A 
ATOM      2  C   UNL     1      -0.758  -7.248  12.562  0.00  0.00    +0.013 A 
ATOM      3  C   UNL     1      -0.024  -6.121  13.124  0.00  0.00    +0.019 A 
ATOM     38  C   UNL     1       1.124  -5.616  12.387  0.00  0.00    +0.120 A 
ATOM     39  N   UNL     1       1.493  -6.211  11.184  0.00  0.00    -0.263 NA
ATOM     40  C   UNL     1       0.795  -7.298  10.635  0.00  0.00    +0.111 A 
ENDBRANCH   4   3
ENDBRANCH  10   9
BRANCH  12  13
ATOM     13  N   UNL     1       0.215  -2.019  20.893  0.00  0.00    -0.281 N 
ATOM     14  C   UNL     1      -0.756  -1.100  20.530  0.00  0.00    +0.248 C 
ATOM     30  O   UNL     1      -1.663  -1.328  19.743  0.00  0.00    -0.270 OA
ATOM     31  H   UNL     1       1.017  -1.645  21.400  0.00  0.00    +0.155 HD
BRANCH  14  15
ATOM     15  C   UNL     1      -0.704   0.275  21.113  0.00  0.00    +0.037 A 
ATOM     16  C   UNL     1      -1.274   1.423  20.404  0.00  0.00    +0.013 A 
ATOM     17  C   UNL     1      -1.195   2.742  20.982  0.00  0.00    +0.005 A 
ATOM     18  C   UNL     1      -0.545   2.918  22.278  0.00  0.00    -0.033 A 
ATOM     28  C   UNL     1       0.007   1.760  22.962  0.00  0.00    +0.005 A 
ATOM     29  C   UNL     1      -0.067   0.467  22.399  0.00  0.00    +0.013 A 
BRANCH  18  19
ATOM     19  C   UNL     1      -0.396   4.291  22.960  0.00  0.00    +0.119 C 
BRANCH  19  20
ATOM     20  N   UNL     1       0.855   4.537  23.738  0.00  0.00    -0.302 NA
ATOM     21  C   UNL     1       0.562   5.049  25.150  0.00  0.00    +0.066 C 
ATOM     22  C   UNL     1       1.881   5.280  25.957  0.00  0.00    -0.064 C 
ATOM     23  N   UNL     1       2.774   6.263  25.199  0.00  0.00    +0.379 N 
ATOM     24  C   UNL     1       3.990   6.526  25.983  0.00  0.00    -0.096 C 
ATOM     25  H   UNL     1       2.216   7.224  25.106  0.00  0.00    -0.082 HD
ATOM     26  C   UNL     1       3.068   5.762  23.792  0.00  0.00    -0.064 C 
ATOM     27  C   UNL     1       1.750   5.508  23.009  0.00  0.00    +0.066 C 
ENDBRANCH  19  20
ENDBRANCH  18  19
ENDBRANCH  14  15
ENDBRANCH  12  13
TORSDOF 6
ENDMDL
MODEL 3
REMARK VINA RESULT:      -8.7      3.520     13.376
REMARK  Name = C:\Users\Docking\Desktop\test protocol\1iep_ligandH.pdb
REMARK  8 active torsions:
REMARK  status: ('A' for Active; 'I' for Inactive)
REMARK    1  A    between atoms: _5  and  _11
REMARK    2  A    between atoms: _19  and  _21
REMARK    3  A    between atoms: _22  and  _66
REMARK    4  A    between atoms: _27  and  _30
REMARK    5  A    between atoms: _32  and  _33
REMARK    6  A    between atoms: _38  and  _43
REMARK    7  A    between atoms: _43  and  _46
REMARK    8  A    between atoms: _53  and  _55
REMARK                            x       y       z     vdW  Elec       q    Type
REMARK                         _______ _______ _______ _____ _____    ______ ____
ROOT
ATOM     10  C   UNL     1       0.128  -6.869  15.907  0.00  0.00    +0.038 A 
ATOM     11  C   UNL     1      -0.117  -7.268  17.245  0.00  0.00    +0.047 A 
ATOM     12  C   UNL     1       0.678  -8.310  17.877  0.00  0.00    +0.035 A 
ATOM     32  C   UNL     1       1.716  -8.923  17.117  0.00  0.00    +0.024 A 
ATOM     33  C   UNL     1       1.979  -8.529  15.755  0.00  0.00    +0.007 A 
ATOM     34  C   UNL     1       1.197  -7.504  15.126  0.00  0.00    -0.029 A 
ATOM     35  C   UNL     1       1.518  -7.127  13.661  0.00  0.00    +0.045 C 
ENDROOT
BRANCH  10   9
ATOM      4  C   UNL     1      -1.480  -2.349  15.744  0.00  0.00    +0.077 A 
ATOM      5  C   UNL     1      -0.693  -1.966  16.881  0.00  0.00    +0.048 A 
ATOM      6  C   UNL     1       0.106  -2.963  17.483  0.00  0.00    +0.116 A 
ATOM      7  N   UNL     1       0.111  -4.245  16.977  0.00  0.00    -0.223 NA
ATOM      8  C   UNL     1      -0.661  -4.582  15.880  0.00  0.00    +0.220 A 
ATOM      9  N   UNL     1      -0.665  -5.863  15.350  0.00  0.00    -0.283 N 
ATOM     36  H   UNL     1      -1.253  -6.073  14.544  0.00  0.00    +0.155 HD
ATOM     37  N   UNL     1      -1.434  -3.648  15.288  0.00  0.00    -0.214 NA
BRANCH   4   3
ATOM      1  C   UNL     1      -3.373  -0.487  12.872  0.00  0.00    +0.020 A 
ATOM      2  C   UNL     1      -2.496  -1.417  13.545  0.00  0.00    +0.013 A 
ATOM      3  C   UNL     1      -2.373  -1.408  14.997  0.00  0.00    +0.019 A 
ATOM     38  C   UNL     1      -3.157  -0.437  15.745  0.00  0.00    +0.120 A 
ATOM     39  N   UNL     1      -3.992   0.448  15.070  0.00  0.00    -0.263 NA
ATOM     40  C   UNL     1      -4.118   0.449  13.673  0.00  0.00    +0.111 A 
ENDBRANCH   4   3
ENDBRANCH  10   9
BRANCH  12  13
ATOM     13  N   UNL     1       0.469  -8.763  19.230  0.00  0.00    -0.281 N 
ATOM     14  C   UNL     1       0.940  -8.192  20.401  0.00  0.00    +0.248 C 
ATOM     30  O   UNL     1       1.796  -7.321  20.450  0.00  0.00    -0.270 OA
ATOM     31  H   UNL     1      -0.093  -9.607  19.338  0.00  0.00    +0.155 HD
BRANCH  14  15
ATOM     15  C   UNL     1       0.393  -8.669  21.708  0.00  0.00    +0.037 A 
ATOM     16  C   UNL     1       0.697 -10.009  22.216  0.00  0.00    +0.013 A 
ATOM     17  C   UNL     1       0.142 -10.450  23.471  0.00  0.00    +0.005 A 
ATOM     18  C   UNL     1      -0.723  -9.547  24.228  0.00  0.00    -0.033 A 
ATOM     28  C   UNL     1      -1.004  -8.221  23.703  0.00  0.00    +0.005 A 
ATOM     29  C   UNL     1      -0.462  -7.786  22.473  0.00  0.00    +0.013 A 
BRANCH  18  19
ATOM     19  C   UNL     1      -1.375  -9.941  25.566  0.00  0.00    +0.119 C 
BRANCH  19  20
ATOM     20  N   UNL     1      -0.498  -9.964  26.775  0.00  0.00    -0.302 NA
ATOM     21  C   UNL     1       0.695  -9.015  26.636  0.00  0.00    +0.066 C 
ATOM     22  C   UNL     1       1.590  -9.035  27.918  0.00  0.00    -0.064 C 
ATOM     23  N   UNL     1       2.064 -10.465  28.184  0.00  0.00    +0.379 N 
ATOM     24  C   UNL     1       2.953 -10.477  29.355  0.00  0.00    -0.096 C 
ATOM     25  H   UNL     1       2.662 -10.792  27.302  0.00  0.00    -0.082 HD
ATOM     26  C   UNL     1       0.884 -11.416  28.320  0.00  0.00    -0.064 C 
ATOM     27  C   UNL     1      -0.015 -11.367  27.053  0.00  0.00    +0.066 C 
ENDBRANCH  19  20
ENDBRANCH  18  19
ENDBRANCH  14  15
ENDBRANCH  12  13
TORSDOF 6
ENDMDL
MODEL 4
REMARK VINA RESULT:      -8.6      3.384     13.045
REMARK  Name = C:\Users\Docking\Desktop\test protocol\1iep_ligandH.pdb
REMARK  8 active torsions:
REMARK  status: ('A' for Active; 'I' for Inactive)
REMARK    1  A    between atoms: _5  and  _11
REMARK    2  A    between atoms: _19  and  _21
REMARK    3  A    between atoms: _22  and  _66
REMARK    4  A    between atoms: _27  and  _30
REMARK    5  A    between atoms: _32  and  _33
REMARK    6  A    between atoms: _38  and  _43
REMARK    7  A    between atoms: _43  and  _46
REMARK    8  A    between atoms: _53  and  _55
REMARK                            x       y       z     vdW  Elec       q    Type
REMARK                         _______ _______ _______ _____ _____    ______ ____
ROOT
ATOM     10  C   UNL     1       0.366  -4.266  18.187  0.00  0.00    +0.038 A 
ATOM     11  C   UNL     1       0.039  -5.334  19.061  0.00  0.00    +0.047 A 
ATOM     12  C   UNL     1       0.019  -5.146  20.504  0.00  0.00    +0.035 A 
ATOM     32  C   UNL     1       0.334  -3.856  21.021  0.00  0.00    +0.024 A 
ATOM     33  C   UNL     1       0.669  -2.760  20.146  0.00  0.00    +0.007 A 
ATOM     34  C   UNL     1       0.693  -2.940  18.723  0.00  0.00    -0.029 A 
ATOM     35  C   UNL     1       1.066  -1.731  17.834  0.00  0.00    +0.045 C 
ENDROOT
BRANCH  10   9
ATOM      4  C   UNL     1       0.583  -7.205  14.398  0.00  0.00    +0.077 A 
ATOM      5  C   UNL     1       0.727  -8.364  15.230  0.00  0.00    +0.048 A 
ATOM      6  C   UNL     1       0.748  -8.160  16.629  0.00  0.00    +0.116 A 
ATOM      7  N   UNL     1       0.632  -6.888  17.144  0.00  0.00    -0.223 NA
ATOM      8  C   UNL     1       0.496  -5.791  16.313  0.00  0.00    +0.220 A 
ATOM      9  N   UNL     1       0.370  -4.503  16.810  0.00  0.00    -0.283 N 
ATOM     36  H   UNL     1       0.279  -3.720  16.164  0.00  0.00    +0.155 HD
ATOM     37  N   UNL     1       0.475  -5.959  14.974  0.00  0.00    -0.214 NA
BRANCH   4   3
ATOM      1  C   UNL     1      -0.504  -7.970  10.719  0.00  0.00    +0.020 A 
ATOM      2  C   UNL     1      -0.509  -7.949  12.163  0.00  0.00    +0.013 A 
ATOM      3  C   UNL     1       0.540  -7.258  12.902  0.00  0.00    +0.019 A 
ATOM     38  C   UNL     1       1.588  -6.592  12.143  0.00  0.00    +0.120 A 
ATOM     39  N   UNL     1       1.568  -6.630  10.752  0.00  0.00    -0.263 NA
ATOM     40  C   UNL     1       0.564  -7.293  10.031  0.00  0.00    +0.111 A 
ENDBRANCH   4   3
ENDBRANCH  10   9
BRANCH  12  13
ATOM     13  N   UNL     1      -0.297  -6.195  21.441  0.00  0.00    -0.281 N 
ATOM     14  C   UNL     1      -0.179  -7.563  21.260  0.00  0.00    +0.248 C 
ATOM     30  O   UNL     1       0.017  -8.103  20.182  0.00  0.00    -0.270 OA
ATOM     31  H   UNL     1      -0.651  -5.891  22.349  0.00  0.00    +0.155 HD
BRANCH  14  15
ATOM     15  C   UNL     1      -0.311  -8.462  22.447  0.00  0.00    +0.037 A 
ATOM     16  C   UNL     1       0.373  -9.757  22.500  0.00  0.00    +0.013 A 
ATOM     17  C   UNL     1       0.215 -10.612  23.649  0.00  0.00    +0.005 A 
ATOM     18  C   UNL     1      -0.632 -10.175  24.756  0.00  0.00    -0.033 A 
ATOM     28  C   UNL     1      -1.295  -8.884  24.680  0.00  0.00    +0.005 A 
ATOM     29  C   UNL     1      -1.143  -8.043  23.555  0.00  0.00    +0.013 A 
BRANCH  18  19
ATOM     19  C   UNL     1      -0.875 -11.032  26.012  0.00  0.00    +0.119 C 
BRANCH  19  20
ATOM     20  N   UNL     1      -0.061 -12.276  26.159  0.00  0.00    -0.302 NA
ATOM     21  C   UNL     1      -0.844 -13.526  25.748  0.00  0.00    +0.066 C 
ATOM     22  C   UNL     1       0.030 -14.815  25.886  0.00  0.00    -0.064 C 
ATOM     23  N   UNL     1       0.528 -14.938  27.327  0.00  0.00    +0.379 N 
ATOM     24  C   UNL     1       1.301 -16.180  27.475  0.00  0.00    -0.096 C 
ATOM     25  H   UNL     1      -0.366 -15.016  27.989  0.00  0.00    -0.082 HD
ATOM     26  C   UNL     1       1.305 -13.698  27.746  0.00  0.00    -0.064 C 
ATOM     27  C   UNL     1       0.438 -12.419  27.576  0.00  0.00    +0.066 C 
ENDBRANCH  19  20
ENDBRANCH  18  19
ENDBRANCH  14  15
ENDBRANCH  12  13
TORSDOF 6
ENDMDL
MODEL 5
REMARK VINA RESULT:      -8.5      3.833     13.469
REMARK  Name = C:\Users\Docking\Desktop\test protocol\1iep_ligandH.pdb
REMARK  8 active torsions:
REMARK  status: ('A' for Active; 'I' for Inactive)
REMARK    1  A    between atoms: _5  and  _11
REMARK    2  A    between atoms: _19  and  _21
REMARK    3  A    between atoms: _22  and  _66
REMARK    4  A    between atoms: _27  and  _30
REMARK    5  A    between atoms: _32  and  _33
REMARK    6  A    between atoms: _38  and  _43
REMARK    7  A    between atoms: _43  and  _46
REMARK    8  A    between atoms: _53  and  _55
REMARK                            x       y       z     vdW  Elec       q    Type
REMARK                         _______ _______ _______ _____ _____    ______ ____
ROOT
ATOM     10  C   UNL     1       0.142  -6.862  15.844  0.00  0.00    +0.038 A 
ATOM     11  C   UNL     1      -0.110  -7.268  17.180  0.00  0.00    +0.047 A 
ATOM     12  C   UNL     1       0.676  -8.319  17.807  0.00  0.00    +0.035 A 
ATOM     32  C   UNL     1       1.713  -8.934  17.047  0.00  0.00    +0.024 A 
ATOM     33  C   UNL     1       1.982  -8.534  15.688  0.00  0.00    +0.007 A 
ATOM     34  C   UNL     1       1.209  -7.499  15.062  0.00  0.00    -0.029 A 
ATOM     35  C   UNL     1       1.537  -7.115  13.601  0.00  0.00    +0.045 C 
ENDROOT
BRANCH  10   9
ATOM      4  C   UNL     1      -1.494  -2.350  15.752  0.00  0.00    +0.077 A 
ATOM      5  C   UNL     1      -0.742  -1.991  16.920  0.00  0.00    +0.048 A 
ATOM      6  C   UNL     1       0.047  -2.999  17.519  0.00  0.00    +0.116 A 
ATOM      7  N   UNL     1       0.076  -4.267  16.981  0.00  0.00    -0.223 NA
ATOM      8  C   UNL     1      -0.662  -4.580  15.854  0.00  0.00    +0.220 A 
ATOM      9  N   UNL     1      -0.642  -5.847  15.292  0.00  0.00    -0.283 N 
ATOM     36  H   UNL     1      -1.207  -6.041  14.465  0.00  0.00    +0.155 HD
ATOM     37  N   UNL     1      -1.425  -3.637  15.265  0.00  0.00    -0.214 NA
BRANCH   4   3
ATOM      1  C   UNL     1      -3.918   0.595  14.884  0.00  0.00    +0.020 A 
ATOM      2  C   UNL     1      -3.082  -0.300  15.652  0.00  0.00    +0.013 A 
ATOM      3  C   UNL     1      -2.373  -1.396  15.005  0.00  0.00    +0.019 A 
ATOM     38  C   UNL     1      -2.531  -1.561  13.568  0.00  0.00    +0.120 A 
ATOM     39  N   UNL     1      -3.343  -0.685  12.855  0.00  0.00    -0.263 NA
ATOM     40  C   UNL     1      -4.032   0.372  13.467  0.00  0.00    +0.111 A 
ENDBRANCH   4   3
ENDBRANCH  10   9
BRANCH  12  13
ATOM     13  N   UNL     1       0.460  -8.779  19.157  0.00  0.00    -0.281 N 
ATOM     14  C   UNL     1       0.938  -8.224  20.333  0.00  0.00    +0.248 C 
ATOM     30  O   UNL     1       1.805  -7.364  20.388  0.00  0.00    -0.270 OA
ATOM     31  H   UNL     1      -0.114  -9.616  19.258  0.00  0.00    +0.155 HD
BRANCH  14  15
ATOM     15  C   UNL     1       0.383  -8.702  21.635  0.00  0.00    +0.037 A 
ATOM     16  C   UNL     1      -0.538  -7.875  22.419  0.00  0.00    +0.013 A 
ATOM     17  C   UNL     1      -1.045  -8.354  23.680  0.00  0.00    +0.005 A 
ATOM     18  C   UNL     1      -0.633  -9.669  24.165  0.00  0.00    -0.033 A 
ATOM     28  C   UNL     1       0.277 -10.471  23.365  0.00  0.00    +0.005 A 
ATOM     29  C   UNL     1       0.777 -10.005  22.129  0.00  0.00    +0.013 A 
BRANCH  18  19
ATOM     19  C   UNL     1      -1.108 -10.251  25.510  0.00  0.00    +0.119 C 
BRANCH  19  20
ATOM     20  N   UNL     1      -0.389 -11.453  26.026  0.00  0.00    -0.302 NA
ATOM     21  C   UNL     1      -1.212 -12.733  25.852  0.00  0.00    +0.066 C 
ATOM     22  C   UNL     1      -0.436 -13.985  26.377  0.00  0.00    -0.064 C 
ATOM     23  N   UNL     1      -0.068 -13.774  27.847  0.00  0.00    +0.379 N 
ATOM     24  C   UNL     1       0.611 -14.973  28.359  0.00  0.00    -0.096 C 
ATOM     25  H   UNL     1      -1.017 -13.651  28.418  0.00  0.00    -0.082 HD
ATOM     26  C   UNL     1       0.748 -12.502  28.029  0.00  0.00    -0.064 C 
ATOM     27  C   UNL     1      -0.020 -11.268  27.478  0.00  0.00    +0.066 C 
ENDBRANCH  19  20
ENDBRANCH  18  19
ENDBRANCH  14  15
ENDBRANCH  12  13
TORSDOF 6
ENDMDL
