MODEL 1
REMARK VINA RESULT:     -12.3      0.000      0.000
REMARK  Name = C:\Users\Docking\Desktop\test protocol\1iep_ligandH.pdb
REMARK  8 active torsions:
REMARK  status: ('A' for Active; 'I' for Inactive)
REMARK    1  A    between atoms: _5  and  _11
REMARK    2  A    between atoms: _19  and  _21
REMARK    3  A    between atoms: _22  and  _66
REMARK    4  A    between atoms: _27  and  _30
REMARK    5  A    between atoms: _32  and  _33
REMARK    6  A    between atoms: _38  and  _43
REMARK    7  A    between atoms: _43  and  _46
REMARK    8  A    between atoms: _53  and  _55
REMARK                            x       y       z     vdW  Elec       q    Type
REMARK                         _______ _______ _______ _____ _____    ______ ____
ROOT
ATOM     10  C   UNL     1      22.603  23.660  39.249  0.00  0.00    +0.038 A 
ATOM     11  C   UNL     1      22.911  23.415  37.886  0.00  0.00    +0.047 A 
ATOM     12  C   UNL     1      24.273  23.130  37.462  0.00  0.00    +0.035 A 
ATOM     32  C   UNL     1      25.297  23.099  38.454  0.00  0.00    +0.024 A 
ATOM     33  C   UNL     1      25.001  23.347  39.843  0.00  0.00    +0.007 A 
ATOM     34  C   UNL     1      23.660  23.631  40.267  0.00  0.00    -0.029 A 
ATOM     35  C   UNL     1      23.401  23.895  41.768  0.00  0.00    +0.045 C 
ENDROOT
BRANCH  10   9
ATOM      4  C   UNL     1      19.025  26.694  40.266  0.00  0.00    +0.077 A 
ATOM      5  C   UNL     1      19.874  27.840  40.112  0.00  0.00    +0.048 A 
ATOM      6  C   UNL     1      21.227  27.605  39.778  0.00  0.00    +0.116 A 
ATOM      7  N   UNL     1      21.685  26.316  39.612  0.00  0.00    -0.223 NA
ATOM      8  C   UNL     1      20.840  25.233  39.769  0.00  0.00    +0.220 A 
ATOM      9  N   UNL     1      21.278  23.929  39.599  0.00  0.00    -0.283 N 
ATOM     36  H   UNL     1      20.625  23.157  39.732  0.00  0.00    +0.155 HD
ATOM     37  N   UNL     1      19.545  25.431  40.090  0.00  0.00    -0.214 NA
BRANCH   4   3
ATOM      1  C   UNL     1      15.296  25.753  40.981  0.00  0.00    +0.020 A 
ATOM      2  C   UNL     1      16.693  25.617  40.636  0.00  0.00    +0.013 A 
ATOM      3  C   UNL     1      17.572  26.779  40.615  0.00  0.00    +0.019 A 
ATOM     38  C   UNL     1      17.002  28.075  40.951  0.00  0.00    +0.120 A 
ATOM     39  N   UNL     1      15.653  28.177  41.277  0.00  0.00    -0.263 NA
ATOM     40  C   UNL     1      14.797  27.065  41.299  0.00  0.00    +0.111 A 
ENDBRANCH   4   3
ENDBRANCH  10   9
BRANCH  12  13
ATOM     13  N   UNL     1      24.648  22.882  36.092  0.00  0.00    -0.281 N 
ATOM     14  C   UNL     1      25.770  23.339  35.420  0.00  0.00    +0.248 C 
ATOM     30  O   UNL     1      26.517  24.212  35.836  0.00  0.00    -0.270 OA
ATOM     31  H   UNL     1      24.009  22.298  35.553  0.00  0.00    +0.155 HD
BRANCH  14  15
ATOM     15  C   UNL     1      26.101  22.752  34.086  0.00  0.00    +0.037 A 
ATOM     16  C   UNL     1      26.709  21.424  33.970  0.00  0.00    +0.013 A 
ATOM     17  C   UNL     1      27.034  20.888  32.672  0.00  0.00    +0.005 A 
ATOM     18  C   UNL     1      26.750  21.681  31.478  0.00  0.00    -0.033 A 
ATOM     28  C   UNL     1      26.142  22.993  31.622  0.00  0.00    +0.005 A 
ATOM     29  C   UNL     1      25.822  23.522  32.893  0.00  0.00    +0.013 A 
BRANCH  18  19
ATOM     19  C   UNL     1      27.083  21.198  30.054  0.00  0.00    +0.119 C 
BRANCH  19  20
ATOM     20  N   UNL     1      28.256  20.286  29.899  0.00  0.00    -0.302 NA
ATOM     21  C   UNL     1      29.192  20.741  28.775  0.00  0.00    +0.066 C 
ATOM     22  C   UNL     1      30.424  19.789  28.640  0.00  0.00    -0.064 C 
ATOM     23  N   UNL     1      29.937  18.360  28.395  0.00  0.00    +0.379 N 
ATOM     24  C   UNL     1      31.095  17.472  28.210  0.00  0.00    -0.096 C 
ATOM     25  H   UNL     1      29.356  18.360  27.444  0.00  0.00    -0.082 HD
ATOM     26  C   UNL     1      29.004  17.901  29.506  0.00  0.00    -0.064 C 
ATOM     27  C   UNL     1      27.798  18.870  29.651  0.00  0.00    +0.066 C 
ENDBRANCH  19  20
ENDBRANCH  18  19
ENDBRANCH  14  15
ENDBRANCH  12  13
TORSDOF 6
ENDMDL
MODEL 2
REMARK VINA RESULT:     -10.0      6.171     14.745
REMARK  Name = C:\Users\Docking\Desktop\test protocol\1iep_ligandH.pdb
REMARK  8 active torsions:
REMARK  status: ('A' for Active; 'I' for Inactive)
REMARK    1  A    between atoms: _5  and  _11
REMARK    2  A    between atoms: _19  and  _21
REMARK    3  A    between atoms: _22  and  _66
REMARK    4  A    between atoms: _27  and  _30
REMARK    5  A    between atoms: _32  and  _33
REMARK    6  A    between atoms: _38  and  _43
REMARK    7  A    between atoms: _43  and  _46
REMARK    8  A    between atoms: _53  and  _55
REMARK                            x       y       z     vdW  Elec       q    Type
REMARK                         _______ _______ _______ _____ _____    ______ ____
ROOT
ATOM     10  C   UNL     1      28.230  14.199  31.112  0.00  0.00    +0.038 A 
ATOM     11  C   UNL     1      28.111  15.386  31.880  0.00  0.00    +0.047 A 
ATOM     12  C   UNL     1      27.470  16.573  31.337  0.00  0.00    +0.035 A 
ATOM     32  C   UNL     1      26.959  16.516  30.007  0.00  0.00    +0.024 A 
ATOM     33  C   UNL     1      27.072  15.319  29.212  0.00  0.00    +0.007 A 
ATOM     34  C   UNL     1      27.706  14.145  29.742  0.00  0.00    -0.029 A 
ATOM     35  C   UNL     1      27.805  12.891  28.842  0.00  0.00    +0.045 C 
ENDROOT
BRANCH  10   9
ATOM      4  C   UNL     1      28.289  10.457  34.117  0.00  0.00    +0.077 A 
ATOM      5  C   UNL     1      26.975  10.756  34.609  0.00  0.00    +0.048 A 
ATOM      6  C   UNL     1      26.320  11.885  34.068  0.00  0.00    +0.116 A 
ATOM      7  N   UNL     1      26.943  12.651  33.107  0.00  0.00    -0.223 NA
ATOM      8  C   UNL     1      28.212  12.337  32.656  0.00  0.00    +0.220 A 
ATOM      9  N   UNL     1      28.855  13.089  31.684  0.00  0.00    -0.283 N 
ATOM     36  H   UNL     1      29.793  12.828  31.384  0.00  0.00    +0.155 HD
ATOM     37  N   UNL     1      28.859  11.264  33.158  0.00  0.00    -0.214 NA
BRANCH   4   3
ATOM      1  C   UNL     1      29.584   7.395  36.178  0.00  0.00    +0.020 A 
ATOM      2  C   UNL     1      28.760   8.507  35.765  0.00  0.00    +0.013 A 
ATOM      3  C   UNL     1      29.107   9.295  34.589  0.00  0.00    +0.019 A 
ATOM     38  C   UNL     1      30.303   8.928  33.846  0.00  0.00    +0.120 A 
ATOM     39  N   UNL     1      31.078   7.852  34.268  0.00  0.00    -0.263 NA
ATOM     40  C   UNL     1      30.755   7.087  35.399  0.00  0.00    +0.111 A 
ENDBRANCH   4   3
ENDBRANCH  10   9
BRANCH  12  13
ATOM     13  N   UNL     1      27.327  17.808  32.066  0.00  0.00    -0.281 N 
ATOM     14  C   UNL     1      27.611  19.092  31.631  0.00  0.00    +0.248 C 
ATOM     30  O   UNL     1      28.236  19.355  30.614  0.00  0.00    -0.270 OA
ATOM     31  H   UNL     1      26.974  17.726  33.020  0.00  0.00    +0.155 HD
BRANCH  14  15
ATOM     15  C   UNL     1      27.145  20.252  32.451  0.00  0.00    +0.037 A 
ATOM     16  C   UNL     1      26.949  21.575  31.853  0.00  0.00    +0.013 A 
ATOM     17  C   UNL     1      26.516  22.681  32.669  0.00  0.00    +0.005 A 
ATOM     18  C   UNL     1      26.274  22.467  34.094  0.00  0.00    -0.033 A 
ATOM     28  C   UNL     1      26.472  21.143  34.661  0.00  0.00    +0.005 A 
ATOM     29  C   UNL     1      26.898  20.057  33.863  0.00  0.00    +0.013 A 
BRANCH  18  19
ATOM     19  C   UNL     1      25.830  23.594  35.045  0.00  0.00    +0.119 C 
BRANCH  19  20
ATOM     20  N   UNL     1      25.174  23.191  36.325  0.00  0.00    -0.302 NA
ATOM     21  C   UNL     1      23.726  23.683  36.408  0.00  0.00    +0.066 C 
ATOM     22  C   UNL     1      23.047  23.233  37.742  0.00  0.00    -0.064 C 
ATOM     23  N   UNL     1      23.864  23.751  38.927  0.00  0.00    +0.379 N 
ATOM     24  C   UNL     1      23.197  23.379  40.183  0.00  0.00    -0.096 C 
ATOM     25  H   UNL     1      23.877  24.864  38.867  0.00  0.00    -0.082 HD
ATOM     26  C   UNL     1      25.306  23.268  38.851  0.00  0.00    -0.064 C 
ATOM     27  C   UNL     1      25.962  23.696  37.508  0.00  0.00    +0.066 C 
ENDBRANCH  19  20
ENDBRANCH  18  19
ENDBRANCH  14  15
ENDBRANCH  12  13
TORSDOF 6
ENDMDL
MODEL 3
REMARK VINA RESULT:      -9.8      7.831     13.345
REMARK  Name = C:\Users\Docking\Desktop\test protocol\1iep_ligandH.pdb
REMARK  8 active torsions:
REMARK  status: ('A' for Active; 'I' for Inactive)
REMARK    1  A    between atoms: _5  and  _11
REMARK    2  A    between atoms: _19  and  _21
REMARK    3  A    between atoms: _22  and  _66
REMARK    4  A    between atoms: _27  and  _30
REMARK    5  A    between atoms: _32  and  _33
REMARK    6  A    between atoms: _38  and  _43
REMARK    7  A    between atoms: _43  and  _46
REMARK    8  A    between atoms: _53  and  _55
REMARK                            x       y       z     vdW  Elec       q    Type
REMARK                         _______ _______ _______ _____ _____    ______ ____
ROOT
ATOM     10  C   UNL     1      29.460  17.246  29.824  0.00  0.00    +0.038 A 
ATOM     11  C   UNL     1      28.923  16.252  30.682  0.00  0.00    +0.047 A 
ATOM     12  C   UNL     1      29.486  14.912  30.726  0.00  0.00    +0.035 A 
ATOM     32  C   UNL     1      30.598  14.619  29.883  0.00  0.00    +0.024 A 
ATOM     33  C   UNL     1      31.155  15.616  29.004  0.00  0.00    +0.007 A 
ATOM     34  C   UNL     1      30.602  16.940  28.955  0.00  0.00    -0.029 A 
ATOM     35  C   UNL     1      31.236  17.967  27.988  0.00  0.00    +0.045 C 
ENDROOT
BRANCH  10   9
ATOM      4  C   UNL     1      27.879  21.180  32.075  0.00  0.00    +0.077 A 
ATOM      5  C   UNL     1      28.212  20.647  33.365  0.00  0.00    +0.048 A 
ATOM      6  C   UNL     1      28.782  19.355  33.406  0.00  0.00    +0.116 A 
ATOM      7  N   UNL     1      28.998  18.656  32.238  0.00  0.00    -0.223 NA
ATOM      8  C   UNL     1      28.664  19.198  31.011  0.00  0.00    +0.220 A 
ATOM      9  N   UNL     1      28.880  18.517  29.823  0.00  0.00    -0.283 N 
ATOM     36  H   UNL     1      28.612  18.948  28.938  0.00  0.00    +0.155 HD
ATOM     37  N   UNL     1      28.117  20.430  30.945  0.00  0.00    -0.214 NA
BRANCH   4   3
ATOM      1  C   UNL     1      26.780  24.570  30.464  0.00  0.00    +0.020 A 
ATOM      2  C   UNL     1      27.384  23.266  30.613  0.00  0.00    +0.013 A 
ATOM      3  C   UNL     1      27.274  22.533  31.867  0.00  0.00    +0.019 A 
ATOM     38  C   UNL     1      26.539  23.152  32.960  0.00  0.00    +0.120 A 
ATOM     39  N   UNL     1      25.969  24.409  32.788  0.00  0.00    -0.263 NA
ATOM     40  C   UNL     1      26.070  25.125  31.586  0.00  0.00    +0.111 A 
ENDBRANCH   4   3
ENDBRANCH  10   9
BRANCH  12  13
ATOM     13  N   UNL     1      28.979  13.860  31.571  0.00  0.00    -0.281 N 
ATOM     14  C   UNL     1      28.990  13.799  32.955  0.00  0.00    +0.248 C 
ATOM     30  O   UNL     1      29.634  14.548  33.674  0.00  0.00    -0.270 OA
ATOM     31  H   UNL     1      28.561  13.063  31.091  0.00  0.00    +0.155 HD
BRANCH  14  15
ATOM     15  C   UNL     1      28.180  12.745  33.638  0.00  0.00    +0.037 A 
ATOM     16  C   UNL     1      28.489  11.322  33.471  0.00  0.00    +0.013 A 
ATOM     17  C   UNL     1      27.681  10.325  34.128  0.00  0.00    +0.005 A 
ATOM     18  C   UNL     1      26.556  10.748  34.959  0.00  0.00    -0.033 A 
ATOM     28  C   UNL     1      26.276  12.167  35.111  0.00  0.00    +0.005 A 
ATOM     29  C   UNL     1      27.065  13.147  34.468  0.00  0.00    +0.013 A 
BRANCH  18  19
ATOM     19  C   UNL     1      25.628   9.753  35.680  0.00  0.00    +0.119 C 
BRANCH  19  20
ATOM     20  N   UNL     1      26.079   8.332  35.759  0.00  0.00    -0.302 NA
ATOM     21  C   UNL     1      24.904   7.366  35.938  0.00  0.00    +0.066 C 
ATOM     22  C   UNL     1      25.392   5.881  35.996  0.00  0.00    -0.064 C 
ATOM     23  N   UNL     1      26.401   5.723  37.134  0.00  0.00    +0.379 N 
ATOM     24  C   UNL     1      26.818   4.317  37.228  0.00  0.00    -0.096 C 
ATOM     25  H   UNL     1      25.883   5.987  38.085  0.00  0.00    -0.082 HD
ATOM     26  C   UNL     1      27.571   6.682  36.965  0.00  0.00    -0.064 C 
ATOM     27  C   UNL     1      27.073   8.152  36.879  0.00  0.00    +0.066 C 
ENDBRANCH  19  20
ENDBRANCH  18  19
ENDBRANCH  14  15
ENDBRANCH  12  13
TORSDOF 6
ENDMDL
MODEL 4
REMARK VINA RESULT:      -9.7      7.928     18.639
REMARK  Name = C:\Users\Docking\Desktop\test protocol\1iep_ligandH.pdb
REMARK  8 active torsions:
REMARK  status: ('A' for Active; 'I' for Inactive)
REMARK    1  A    between atoms: _5  and  _11
REMARK    2  A    between atoms: _19  and  _21
REMARK    3  A    between atoms: _22  and  _66
REMARK    4  A    between atoms: _27  and  _30
REMARK    5  A    between atoms: _32  and  _33
REMARK    6  A    between atoms: _38  and  _43
REMARK    7  A    between atoms: _43  and  _46
REMARK    8  A    between atoms: _53  and  _55
REMARK                            x       y       z     vdW  Elec       q    Type
REMARK                         _______ _______ _______ _____ _____    ______ ____
ROOT
ATOM     10  C   UNL     1      36.363  18.538  26.099  0.00  0.00    +0.038 A 
ATOM     11  C   UNL     1      35.147  18.753  26.797  0.00  0.00    +0.047 A 
ATOM     12  C   UNL     1      33.913  18.109  26.374  0.00  0.00    +0.035 A 
ATOM     32  C   UNL     1      33.955  17.250  25.237  0.00  0.00    +0.024 A 
ATOM     33  C   UNL     1      35.182  17.022  24.515  0.00  0.00    +0.007 A 
ATOM     34  C   UNL     1      36.401  17.656  24.926  0.00  0.00    -0.029 A 
ATOM     35  C   UNL     1      37.686  17.380  24.111  0.00  0.00    +0.045 C 
ENDROOT
BRANCH  10   9
ATOM      4  C   UNL     1      40.486  18.608  28.556  0.00  0.00    +0.077 A 
ATOM      5  C   UNL     1      40.310  17.256  29.003  0.00  0.00    +0.048 A 
ATOM      6  C   UNL     1      39.142  16.581  28.584  0.00  0.00    +0.116 A 
ATOM      7  N   UNL     1      38.225  17.219  27.778  0.00  0.00    -0.223 NA
ATOM      8  C   UNL     1      38.424  18.523  27.366  0.00  0.00    +0.220 A 
ATOM      9  N   UNL     1      37.518  19.182  26.549  0.00  0.00    -0.283 N 
ATOM     36  H   UNL     1      37.697  20.147  26.272  0.00  0.00    +0.155 HD
ATOM     37  N   UNL     1      39.530  19.191  27.753  0.00  0.00    -0.214 NA
BRANCH   4   3
ATOM      1  C   UNL     1      43.943  19.792  29.951  0.00  0.00    +0.020 A 
ATOM      2  C   UNL     1      42.825  18.934  29.633  0.00  0.00    +0.013 A 
ATOM      3  C   UNL     1      41.670  19.453  28.911  0.00  0.00    +0.019 A 
ATOM     38  C   UNL     1      41.678  20.855  28.521  0.00  0.00    +0.120 A 
ATOM     39  N   UNL     1      42.768  21.657  28.843  0.00  0.00    -0.263 NA
ATOM     40  C   UNL     1      43.884  21.170  29.539  0.00  0.00    +0.111 A 
ENDBRANCH   4   3
ENDBRANCH  10   9
BRANCH  12  13
ATOM     13  N   UNL     1      32.647  18.295  27.038  0.00  0.00    -0.281 N 
ATOM     14  C   UNL     1      31.842  17.331  27.623  0.00  0.00    +0.248 C 
ATOM     30  O   UNL     1      31.988  16.127  27.475  0.00  0.00    -0.270 OA
ATOM     31  H   UNL     1      32.302  19.254  27.082  0.00  0.00    +0.155 HD
BRANCH  14  15
ATOM     15  C   UNL     1      30.702  17.768  28.485  0.00  0.00    +0.037 A 
ATOM     16  C   UNL     1      29.945  16.806  29.290  0.00  0.00    +0.013 A 
ATOM     17  C   UNL     1      28.839  17.251  30.099  0.00  0.00    +0.005 A 
ATOM     18  C   UNL     1      28.484  18.668  30.109  0.00  0.00    -0.033 A 
ATOM     28  C   UNL     1      29.255  19.602  29.305  0.00  0.00    +0.005 A 
ATOM     29  C   UNL     1      30.339  19.169  28.509  0.00  0.00    +0.013 A 
BRANCH  18  19
ATOM     19  C   UNL     1      27.306  19.230  30.926  0.00  0.00    +0.119 C 
BRANCH  19  20
ATOM     20  N   UNL     1      27.309  20.696  31.212  0.00  0.00    -0.302 NA
ATOM     21  C   UNL     1      27.166  20.989  32.708  0.00  0.00    +0.066 C 
ATOM     22  C   UNL     1      27.194  22.527  32.992  0.00  0.00    -0.064 C 
ATOM     23  N   UNL     1      26.079  23.209  32.197  0.00  0.00    +0.379 N 
ATOM     24  C   UNL     1      26.065  24.646  32.506  0.00  0.00    -0.096 C 
ATOM     25  H   UNL     1      25.109  22.780  32.540  0.00  0.00    -0.082 HD
ATOM     26  C   UNL     1      26.211  22.920  30.709  0.00  0.00    -0.064 C 
ATOM     27  C   UNL     1      26.213  21.389  30.441  0.00  0.00    +0.066 C 
ENDBRANCH  19  20
ENDBRANCH  18  19
ENDBRANCH  14  15
ENDBRANCH  12  13
TORSDOF 6
ENDMDL
MODEL 5
REMARK VINA RESULT:      -9.4      8.381     14.098
REMARK  Name = C:\Users\Docking\Desktop\test protocol\1iep_ligandH.pdb
REMARK  8 active torsions:
REMARK  status: ('A' for Active; 'I' for Inactive)
REMARK    1  A    between atoms: _5  and  _11
REMARK    2  A    between atoms: _19  and  _21
REMARK    3  A    between atoms: _22  and  _66
REMARK    4  A    between atoms: _27  and  _30
REMARK    5  A    between atoms: _32  and  _33
REMARK    6  A    between atoms: _38  and  _43
REMARK    7  A    between atoms: _43  and  _46
REMARK    8  A    between atoms: _53  and  _55
REMARK                            x       y       z     vdW  Elec       q    Type
REMARK                         _______ _______ _______ _____ _____    ______ ____
ROOT
ATOM     10  C   UNL     1      27.344  15.482  31.876  0.00  0.00    +0.038 A 
ATOM     11  C   UNL     1      26.943  14.716  30.752  0.00  0.00    +0.047 A 
ATOM     12  C   UNL     1      27.349  13.328  30.603  0.00  0.00    +0.035 A 
ATOM     32  C   UNL     1      28.164  12.750  31.620  0.00  0.00    +0.024 A 
ATOM     33  C   UNL     1      28.582  13.514  32.769  0.00  0.00    +0.007 A 
ATOM     34  C   UNL     1      28.186  14.885  32.920  0.00  0.00    -0.029 A 
ATOM     35  C   UNL     1      28.669  15.658  34.169  0.00  0.00    +0.045 C 
ENDROOT
BRANCH  10   9
ATOM      4  C   UNL     1      27.697  20.123  30.703  0.00  0.00    +0.077 A 
ATOM      5  C   UNL     1      28.830  19.884  29.856  0.00  0.00    +0.048 A 
ATOM      6  C   UNL     1      29.295  18.554  29.755  0.00  0.00    +0.116 A 
ATOM      7  N   UNL     1      28.666  17.546  30.454  0.00  0.00    -0.223 NA
ATOM      8  C   UNL     1      27.577  17.811  31.263  0.00  0.00    +0.220 A 
ATOM      9  N   UNL     1      26.925  16.811  31.968  0.00  0.00    -0.283 N 
ATOM     36  H   UNL     1      26.129  17.049  32.560  0.00  0.00    +0.155 HD
ATOM     37  N   UNL     1      27.115  19.073  31.377  0.00  0.00    -0.214 NA
BRANCH   4   3
ATOM      1  C   UNL     1      26.280  23.715  30.077  0.00  0.00    +0.020 A 
ATOM      2  C   UNL     1      26.874  22.423  29.824  0.00  0.00    +0.013 A 
ATOM      3  C   UNL     1      27.086  21.474  30.910  0.00  0.00    +0.019 A 
ATOM     38  C   UNL     1      26.683  21.868  32.252  0.00  0.00    +0.120 A 
ATOM     39  N   UNL     1      26.114  23.119  32.466  0.00  0.00    -0.263 NA
ATOM     40  C   UNL     1      25.907  24.041  31.429  0.00  0.00    +0.111 A 
ENDBRANCH   4   3
ENDBRANCH  10   9
BRANCH  12  13
ATOM     13  N   UNL     1      26.979  12.503  29.480  0.00  0.00    -0.281 N 
ATOM     14  C   UNL     1      27.776  12.097  28.422  0.00  0.00    +0.248 C 
ATOM     30  O   UNL     1      28.878  12.561  28.169  0.00  0.00    -0.270 OA
ATOM     31  H   UNL     1      26.012  12.179  29.463  0.00  0.00    +0.155 HD
BRANCH  14  15
ATOM     15  C   UNL     1      27.269  11.033  27.503  0.00  0.00    +0.037 A 
ATOM     16  C   UNL     1      25.854  10.960  27.131  0.00  0.00    +0.013 A 
ATOM     17  C   UNL     1      25.388   9.913  26.257  0.00  0.00    +0.005 A 
ATOM     18  C   UNL     1      26.341   8.930  25.747  0.00  0.00    -0.033 A 
ATOM     28  C   UNL     1      27.740   9.028  26.128  0.00  0.00    +0.005 A 
ATOM     29  C   UNL     1      28.200  10.053  26.986  0.00  0.00    +0.013 A 
BRANCH  18  19
ATOM     19  C   UNL     1      25.929   7.766  24.826  0.00  0.00    +0.119 C 
BRANCH  19  20
ATOM     20  N   UNL     1      24.610   7.119  25.090  0.00  0.00    -0.302 NA
ATOM     21  C   UNL     1      24.753   5.626  25.396  0.00  0.00    +0.066 C 
ATOM     22  C   UNL     1      23.365   4.969  25.692  0.00  0.00    -0.064 C 
ATOM     23  N   UNL     1      22.435   5.190  24.498  0.00  0.00    +0.379 N 
ATOM     24  C   UNL     1      21.148   4.525  24.749  0.00  0.00    -0.096 C 
ATOM     25  H   UNL     1      22.901   4.702  23.611  0.00  0.00    -0.082 HD
ATOM     26  C   UNL     1      22.289   6.673  24.185  0.00  0.00    -0.064 C 
ATOM     27  C   UNL     1      23.676   7.322  23.922  0.00  0.00    +0.066 C 
ENDBRANCH  19  20
ENDBRANCH  18  19
ENDBRANCH  14  15
ENDBRANCH  12  13
TORSDOF 6
ENDMDL
