MODEL 1
REMARK VINA RESULT:      -8.4      0.000      0.000
REMARK  Name = C:\Users\Docking\Desktop\test protocol\1iep_ligandH.pdb
REMARK  8 active torsions:
REMARK  status: ('A' for Active; 'I' for Inactive)
REMARK    1  A    between atoms: _5  and  _11
REMARK    2  A    between atoms: _19  and  _21
REMARK    3  A    between atoms: _22  and  _66
REMARK    4  A    between atoms: _27  and  _30
REMARK    5  A    between atoms: _32  and  _33
REMARK    6  A    between atoms: _38  and  _43
REMARK    7  A    between atoms: _43  and  _46
REMARK    8  A    between atoms: _53  and  _55
REMARK                            x       y       z     vdW  Elec       q    Type
REMARK                         _______ _______ _______ _____ _____    ______ ____
ROOT
ATOM     10  C   UNL     1      14.513  21.329   7.872  0.00  0.00    +0.038 A 
ATOM     11  C   UNL     1      15.708  21.444   8.626  0.00  0.00    +0.047 A 
ATOM     12  C   UNL     1      16.644  20.335   8.727  0.00  0.00    +0.035 A 
ATOM     32  C   UNL     1      16.333  19.124   8.044  0.00  0.00    +0.024 A 
ATOM     33  C   UNL     1      15.122  18.989   7.274  0.00  0.00    +0.007 A 
ATOM     34  C   UNL     1      14.193  20.079   7.172  0.00  0.00    -0.029 A 
ATOM     35  C   UNL     1      12.908  19.876   6.337  0.00  0.00    +0.045 C 
ENDROOT
BRANCH  10   9
ATOM      4  C   UNL     1      10.958  24.024   9.642  0.00  0.00    +0.077 A 
ATOM      5  C   UNL     1      10.787  23.160  10.774  0.00  0.00    +0.048 A 
ATOM      6  C   UNL     1      11.630  22.029  10.860  0.00  0.00    +0.116 A 
ATOM      7  N   UNL     1      12.569  21.790   9.881  0.00  0.00    -0.223 NA
ATOM      8  C   UNL     1      12.707  22.642   8.801  0.00  0.00    +0.220 A 
ATOM      9  N   UNL     1      13.650  22.425   7.809  0.00  0.00    -0.283 N 
ATOM     36  H   UNL     1      13.715  23.073   7.024  0.00  0.00    +0.155 HD
ATOM     37  N   UNL     1      11.913  23.728   8.695  0.00  0.00    -0.214 NA
BRANCH   4   3
ATOM      1  C   UNL     1       7.990  26.569   9.499  0.00  0.00    +0.020 A 
ATOM      2  C   UNL     1       8.729  25.351   9.741  0.00  0.00    +0.013 A 
ATOM      3  C   UNL     1      10.146  25.261   9.412  0.00  0.00    +0.019 A 
ATOM     38  C   UNL     1      10.791  26.431   8.836  0.00  0.00    +0.120 A 
ATOM     39  N   UNL     1      10.054  27.590   8.613  0.00  0.00    -0.263 NA
ATOM     40  C   UNL     1       8.690  27.687   8.924  0.00  0.00    +0.111 A 
ENDBRANCH   4   3
ENDBRANCH  10   9
BRANCH  12  13
ATOM     13  N   UNL     1      17.870  20.391   9.486  0.00  0.00    -0.281 N 
ATOM     14  C   UNL     1      19.082  20.941   9.105  0.00  0.00    +0.248 C 
ATOM     30  O   UNL     1      19.359  21.282   7.964  0.00  0.00    -0.270 OA
ATOM     31  H   UNL     1      17.839  19.974  10.416  0.00  0.00    +0.155 HD
BRANCH  14  15
ATOM     15  C   UNL     1      20.147  21.127  10.137  0.00  0.00    +0.037 A 
ATOM     16  C   UNL     1      20.391  20.115  11.169  0.00  0.00    +0.013 A 
ATOM     17  C   UNL     1      21.412  20.327  12.163  0.00  0.00    +0.005 A 
ATOM     18  C   UNL     1      22.200  21.558  12.130  0.00  0.00    -0.033 A 
ATOM     28  C   UNL     1      21.940  22.542  11.093  0.00  0.00    +0.005 A 
ATOM     29  C   UNL     1      20.939  22.339  10.117  0.00  0.00    +0.013 A 
BRANCH  18  19
ATOM     19  C   UNL     1      23.296  21.877  13.164  0.00  0.00    +0.119 C 
BRANCH  19  20
ATOM     20  N   UNL     1      22.851  22.368  14.502  0.00  0.00    -0.302 NA
ATOM     21  C   UNL     1      22.493  23.857  14.478  0.00  0.00    +0.066 C 
ATOM     22  C   UNL     1      22.008  24.349  15.881  0.00  0.00    -0.064 C 
ATOM     23  N   UNL     1      23.096  24.070  16.919  0.00  0.00    +0.379 N 
ATOM     24  C   UNL     1      22.668  24.584  18.228  0.00  0.00    -0.096 C 
ATOM     25  H   UNL     1      24.007  24.637  16.615  0.00  0.00    -0.082 HD
ATOM     26  C   UNL     1      23.460  22.593  16.948  0.00  0.00    -0.064 C 
ATOM     27  C   UNL     1      23.912  22.107  15.542  0.00  0.00    +0.066 C 
ENDBRANCH  19  20
ENDBRANCH  18  19
ENDBRANCH  14  15
ENDBRANCH  12  13
TORSDOF 6
ENDMDL
MODEL 2
REMARK VINA RESULT:      -8.2      8.121     15.931
REMARK  Name = C:\Users\Docking\Desktop\test protocol\1iep_ligandH.pdb
REMARK  8 active torsions:
REMARK  status: ('A' for Active; 'I' for Inactive)
REMARK    1  A    between atoms: _5  and  _11
REMARK    2  A    between atoms: _19  and  _21
REMARK    3  A    between atoms: _22  and  _66
REMARK    4  A    between atoms: _27  and  _30
REMARK    5  A    between atoms: _32  and  _33
REMARK    6  A    between atoms: _38  and  _43
REMARK    7  A    between atoms: _43  and  _46
REMARK    8  A    between atoms: _53  and  _55
REMARK                            x       y       z     vdW  Elec       q    Type
REMARK                         _______ _______ _______ _____ _____    ______ ____
ROOT
ATOM     10  C   UNL     1       9.433  25.091   8.432  0.00  0.00    +0.038 A 
ATOM     11  C   UNL     1       8.059  25.378   8.225  0.00  0.00    +0.047 A 
ATOM     12  C   UNL     1       7.560  26.743   8.269  0.00  0.00    +0.035 A 
ATOM     32  C   UNL     1       8.489  27.794   8.524  0.00  0.00    +0.024 A 
ATOM     33  C   UNL     1       9.889  27.521   8.737  0.00  0.00    +0.007 A 
ATOM     34  C   UNL     1      10.386  26.176   8.697  0.00  0.00    -0.029 A 
ATOM     35  C   UNL     1      11.896  25.941   8.940  0.00  0.00    +0.045 C 
ENDROOT
BRANCH  10   9
ATOM      4  C   UNL     1      10.632  20.944  10.529  0.00  0.00    +0.077 A 
ATOM      5  C   UNL     1      10.420  21.479  11.843  0.00  0.00    +0.048 A 
ATOM      6  C   UNL     1      10.010  22.828  11.936  0.00  0.00    +0.116 A 
ATOM      7  N   UNL     1       9.828  23.576  10.793  0.00  0.00    -0.223 NA
ATOM      8  C   UNL     1      10.042  23.030   9.541  0.00  0.00    +0.220 A 
ATOM      9  N   UNL     1       9.858  23.762   8.379  0.00  0.00    -0.283 N 
ATOM     36  H   UNL     1      10.034  23.325   7.474  0.00  0.00    +0.155 HD
ATOM     37  N   UNL     1      10.436  21.744   9.426  0.00  0.00    -0.214 NA
BRANCH   4   3
ATOM      1  C   UNL     1      12.580  17.821   9.204  0.00  0.00    +0.020 A 
ATOM      2  C   UNL     1      12.205  19.199   9.425  0.00  0.00    +0.013 A 
ATOM      3  C   UNL     1      11.063  19.534  10.266  0.00  0.00    +0.019 A 
ATOM     38  C   UNL     1      10.317  18.444  10.875  0.00  0.00    +0.120 A 
ATOM     39  N   UNL     1      10.700  17.126  10.643  0.00  0.00    -0.263 NA
ATOM     40  C   UNL     1      11.796  16.791   9.833  0.00  0.00    +0.111 A 
ENDBRANCH   4   3
ENDBRANCH  10   9
BRANCH  12  13
ATOM     13  N   UNL     1       6.175  27.094   8.075  0.00  0.00    -0.281 N 
ATOM     14  C   UNL     1       5.515  27.326   6.880  0.00  0.00    +0.248 C 
ATOM     30  O   UNL     1       6.070  27.476   5.802  0.00  0.00    -0.270 OA
ATOM     31  H   UNL     1       5.613  27.182   8.922  0.00  0.00    +0.155 HD
BRANCH  14  15
ATOM     15  C   UNL     1       4.023  27.418   6.885  0.00  0.00    +0.037 A 
ATOM     16  C   UNL     1       3.192  26.267   7.248  0.00  0.00    +0.013 A 
ATOM     17  C   UNL     1       1.755  26.378   7.228  0.00  0.00    +0.005 A 
ATOM     18  C   UNL     1       1.140  27.647   6.845  0.00  0.00    -0.033 A 
ATOM     28  C   UNL     1       1.988  28.774   6.494  0.00  0.00    +0.005 A 
ATOM     29  C   UNL     1       3.397  28.668   6.512  0.00  0.00    +0.013 A 
BRANCH  18  19
ATOM     19  C   UNL     1      -0.385  27.849   6.776  0.00  0.00    +0.119 C 
BRANCH  19  20
ATOM     20  N   UNL     1      -1.142  27.788   8.062  0.00  0.00    -0.302 NA
ATOM     21  C   UNL     1      -0.383  28.463   9.208  0.00  0.00    +0.066 C 
ATOM     22  C   UNL     1      -1.199  28.410  10.540  0.00  0.00    -0.064 C 
ATOM     23  N   UNL     1      -1.516  26.953  10.883  0.00  0.00    +0.379 N 
ATOM     24  C   UNL     1      -2.233  26.896  12.166  0.00  0.00    -0.096 C 
ATOM     25  H   UNL     1      -0.546  26.418  11.014  0.00  0.00    -0.082 HD
ATOM     26  C   UNL     1      -2.268  26.274   9.748  0.00  0.00    -0.064 C 
ATOM     27  C   UNL     1      -1.462  26.358   8.422  0.00  0.00    +0.066 C 
ENDBRANCH  19  20
ENDBRANCH  18  19
ENDBRANCH  14  15
ENDBRANCH  12  13
TORSDOF 6
ENDMDL
MODEL 3
REMARK VINA RESULT:      -7.9      8.171     15.982
REMARK  Name = C:\Users\Docking\Desktop\test protocol\1iep_ligandH.pdb
REMARK  8 active torsions:
REMARK  status: ('A' for Active; 'I' for Inactive)
REMARK    1  A    between atoms: _5  and  _11
REMARK    2  A    between atoms: _19  and  _21
REMARK    3  A    between atoms: _22  and  _66
REMARK    4  A    between atoms: _27  and  _30
REMARK    5  A    between atoms: _32  and  _33
REMARK    6  A    between atoms: _38  and  _43
REMARK    7  A    between atoms: _43  and  _46
REMARK    8  A    between atoms: _53  and  _55
REMARK                            x       y       z     vdW  Elec       q    Type
REMARK                         _______ _______ _______ _____ _____    ______ ____
ROOT
ATOM     10  C   UNL     1       9.331  25.165   8.889  0.00  0.00    +0.038 A 
ATOM     11  C   UNL     1       7.958  25.391   8.615  0.00  0.00    +0.047 A 
ATOM     12  C   UNL     1       7.455  26.727   8.337  0.00  0.00    +0.035 A 
ATOM     32  C   UNL     1       8.381  27.812   8.343  0.00  0.00    +0.024 A 
ATOM     33  C   UNL     1       9.780  27.601   8.621  0.00  0.00    +0.007 A 
ATOM     34  C   UNL     1      10.280  26.285   8.899  0.00  0.00    -0.029 A 
ATOM     35  C   UNL     1      11.789  26.119   9.196  0.00  0.00    +0.045 C 
ENDROOT
BRANCH  10   9
ATOM      4  C   UNL     1      11.395  21.042   7.556  0.00  0.00    +0.077 A 
ATOM      5  C   UNL     1      11.615  21.516   6.220  0.00  0.00    +0.048 A 
ATOM      6  C   UNL     1      11.176  22.824   5.914  0.00  0.00    +0.116 A 
ATOM      7  N   UNL     1      10.564  23.592   6.881  0.00  0.00    -0.223 NA
ATOM      8  C   UNL     1      10.365  23.104   8.160  0.00  0.00    +0.220 A 
ATOM      9  N   UNL     1       9.759  23.862   9.150  0.00  0.00    -0.283 N 
ATOM     36  H   UNL     1       9.624  23.463  10.078  0.00  0.00    +0.155 HD
ATOM     37  N   UNL     1      10.774  21.858   8.476  0.00  0.00    -0.214 NA
BRANCH   4   3
ATOM      1  C   UNL     1      12.921  17.444   7.712  0.00  0.00    +0.020 A 
ATOM      2  C   UNL     1      12.548  18.744   7.203  0.00  0.00    +0.013 A 
ATOM      3  C   UNL     1      11.805  19.684   8.033  0.00  0.00    +0.019 A 
ATOM     38  C   UNL     1      11.452  19.274   9.384  0.00  0.00    +0.120 A 
ATOM     39  N   UNL     1      11.823  18.016   9.846  0.00  0.00    -0.263 NA
ATOM     40  C   UNL     1      12.537  17.102   9.056  0.00  0.00    +0.111 A 
ENDBRANCH   4   3
ENDBRANCH  10   9
BRANCH  12  13
ATOM     13  N   UNL     1       6.071  27.018   8.059  0.00  0.00    -0.281 N 
ATOM     14  C   UNL     1       5.475  27.227   6.826  0.00  0.00    +0.248 C 
ATOM     30  O   UNL     1       6.087  27.407   5.784  0.00  0.00    -0.270 OA
ATOM     31  H   UNL     1       5.455  27.077   8.871  0.00  0.00    +0.155 HD
BRANCH  14  15
ATOM     15  C   UNL     1       3.983  27.254   6.741  0.00  0.00    +0.037 A 
ATOM     16  C   UNL     1       3.268  28.454   6.298  0.00  0.00    +0.013 A 
ATOM     17  C   UNL     1       1.828  28.459   6.241  0.00  0.00    +0.005 A 
ATOM     18  C   UNL     1       1.092  27.257   6.627  0.00  0.00    -0.033 A 
ATOM     28  C   UNL     1       1.826  26.078   7.058  0.00  0.00    +0.005 A 
ATOM     29  C   UNL     1       3.238  26.071   7.116  0.00  0.00    +0.013 A 
BRANCH  18  19
ATOM     19  C   UNL     1      -0.446  27.179   6.617  0.00  0.00    +0.119 C 
BRANCH  19  20
ATOM     20  N   UNL     1      -1.150  27.395   7.916  0.00  0.00    -0.302 NA
ATOM     21  C   UNL     1      -0.339  28.278   8.869  0.00  0.00    +0.066 C 
ATOM     22  C   UNL     1      -1.100  28.513  10.215  0.00  0.00    -0.064 C 
ATOM     23  N   UNL     1      -1.414  27.163  10.862  0.00  0.00    +0.379 N 
ATOM     24  C   UNL     1      -2.078  27.382  12.155  0.00  0.00    -0.096 C 
ATOM     25  H   UNL     1      -0.444  26.651  11.062  0.00  0.00    -0.082 HD
ATOM     26  C   UNL     1      -2.218  26.278   9.920  0.00  0.00    -0.064 C 
ATOM     27  C   UNL     1      -1.466  26.075   8.575  0.00  0.00    +0.066 C 
ENDBRANCH  19  20
ENDBRANCH  18  19
ENDBRANCH  14  15
ENDBRANCH  12  13
TORSDOF 6
ENDMDL
MODEL 4
REMARK VINA RESULT:      -7.9      6.499      8.822
REMARK  Name = C:\Users\Docking\Desktop\test protocol\1iep_ligandH.pdb
REMARK  8 active torsions:
REMARK  status: ('A' for Active; 'I' for Inactive)
REMARK    1  A    between atoms: _5  and  _11
REMARK    2  A    between atoms: _19  and  _21
REMARK    3  A    between atoms: _22  and  _66
REMARK    4  A    between atoms: _27  and  _30
REMARK    5  A    between atoms: _32  and  _33
REMARK    6  A    between atoms: _38  and  _43
REMARK    7  A    between atoms: _43  and  _46
REMARK    8  A    between atoms: _53  and  _55
REMARK                            x       y       z     vdW  Elec       q    Type
REMARK                         _______ _______ _______ _____ _____    ______ ____
ROOT
ATOM     10  C   UNL     1      10.392  23.972   8.914  0.00  0.00    +0.038 A 
ATOM     11  C   UNL     1      11.496  23.951   8.024  0.00  0.00    +0.047 A 
ATOM     12  C   UNL     1      12.843  23.685   8.503  0.00  0.00    +0.035 A 
ATOM     32  C   UNL     1      13.030  23.441   9.895  0.00  0.00    +0.024 A 
ATOM     33  C   UNL     1      11.919  23.460  10.814  0.00  0.00    +0.007 A 
ATOM     34  C   UNL     1      10.588  23.725  10.347  0.00  0.00    -0.029 A 
ATOM     35  C   UNL     1       9.435  23.739  11.379  0.00  0.00    +0.045 C 
ENDROOT
BRANCH  10   9
ATOM      4  C   UNL     1       6.973  26.983   7.402  0.00  0.00    +0.077 A 
ATOM      5  C   UNL     1       7.779  28.135   7.686  0.00  0.00    +0.048 A 
ATOM      6  C   UNL     1       9.065  27.910   8.227  0.00  0.00    +0.116 A 
ATOM      7  N   UNL     1       9.502  26.624   8.462  0.00  0.00    -0.223 NA
ATOM      8  C   UNL     1       8.698  25.535   8.179  0.00  0.00    +0.220 A 
ATOM      9  N   UNL     1       9.120  24.233   8.400  0.00  0.00    -0.283 N 
ATOM     36  H   UNL     1       8.494  23.457   8.184  0.00  0.00    +0.155 HD
ATOM     37  N   UNL     1       7.465  25.723   7.663  0.00  0.00    -0.214 NA
BRANCH   4   3
ATOM      1  C   UNL     1       3.091  27.293   7.038  0.00  0.00    +0.020 A 
ATOM      2  C   UNL     1       4.400  27.226   7.645  0.00  0.00    +0.013 A 
ATOM      3  C   UNL     1       5.593  27.057   6.826  0.00  0.00    +0.019 A 
ATOM     38  C   UNL     1       5.426  26.959   5.384  0.00  0.00    +0.120 A 
ATOM     39  N   UNL     1       4.152  27.024   4.827  0.00  0.00    -0.263 NA
ATOM     40  C   UNL     1       2.996  27.185   5.606  0.00  0.00    +0.111 A 
ENDBRANCH   4   3
ENDBRANCH  10   9
BRANCH  12  13
ATOM     13  N   UNL     1      14.004  23.658   7.648  0.00  0.00    -0.281 N 
ATOM     14  C   UNL     1      14.267  22.797   6.595  0.00  0.00    +0.248 C 
ATOM     30  O   UNL     1      13.636  21.776   6.363  0.00  0.00    -0.270 OA
ATOM     31  H   UNL     1      14.719  24.359   7.842  0.00  0.00    +0.155 HD
BRANCH  14  15
ATOM     15  C   UNL     1      15.403  23.107   5.675  0.00  0.00    +0.037 A 
ATOM     16  C   UNL     1      15.170  23.482   4.278  0.00  0.00    +0.013 A 
ATOM     17  C   UNL     1      16.284  23.760   3.407  0.00  0.00    +0.005 A 
ATOM     18  C   UNL     1      17.644  23.664   3.933  0.00  0.00    -0.033 A 
ATOM     28  C   UNL     1      17.847  23.294   5.324  0.00  0.00    +0.005 A 
ATOM     29  C   UNL     1      16.757  23.021   6.180  0.00  0.00    +0.013 A 
BRANCH  18  19
ATOM     19  C   UNL     1      18.894  23.921   3.070  0.00  0.00    +0.119 C 
BRANCH  19  20
ATOM     20  N   UNL     1      19.034  25.276   2.457  0.00  0.00    -0.302 NA
ATOM     21  C   UNL     1      20.391  25.458   1.771  0.00  0.00    +0.066 C 
ATOM     22  C   UNL     1      20.512  26.873   1.115  0.00  0.00    -0.064 C 
ATOM     23  N   UNL     1      20.296  27.947   2.183  0.00  0.00    +0.379 N 
ATOM     24  C   UNL     1      20.466  29.277   1.582  0.00  0.00    -0.096 C 
ATOM     25  H   UNL     1      21.090  27.820   2.955  0.00  0.00    -0.082 HD
ATOM     26  C   UNL     1      18.950  27.771   2.872  0.00  0.00    -0.064 C 
ATOM     27  C   UNL     1      18.829  26.352   3.495  0.00  0.00    +0.066 C 
ENDBRANCH  19  20
ENDBRANCH  18  19
ENDBRANCH  14  15
ENDBRANCH  12  13
TORSDOF 6
ENDMDL
MODEL 5
REMARK VINA RESULT:      -7.9      7.617     11.874
REMARK  Name = C:\Users\Docking\Desktop\test protocol\1iep_ligandH.pdb
REMARK  8 active torsions:
REMARK  status: ('A' for Active; 'I' for Inactive)
REMARK    1  A    between atoms: _5  and  _11
REMARK    2  A    between atoms: _19  and  _21
REMARK    3  A    between atoms: _22  and  _66
REMARK    4  A    between atoms: _27  and  _30
REMARK    5  A    between atoms: _32  and  _33
REMARK    6  A    between atoms: _38  and  _43
REMARK    7  A    between atoms: _43  and  _46
REMARK    8  A    between atoms: _53  and  _55
REMARK                            x       y       z     vdW  Elec       q    Type
REMARK                         _______ _______ _______ _____ _____    ______ ____
ROOT
ATOM     10  C   UNL     1      19.887  25.435   3.884  0.00  0.00    +0.038 A 
ATOM     11  C   UNL     1      18.699  25.167   4.611  0.00  0.00    +0.047 A 
ATOM     12  C   UNL     1      18.095  23.843   4.604  0.00  0.00    +0.035 A 
ATOM     32  C   UNL     1      18.729  22.816   3.847  0.00  0.00    +0.024 A 
ATOM     33  C   UNL     1      19.937  23.071   3.101  0.00  0.00    +0.007 A 
ATOM     34  C   UNL     1      20.535  24.376   3.103  0.00  0.00    -0.029 A 
ATOM     35  C   UNL     1      21.826  24.594   2.280  0.00  0.00    +0.045 C 
ENDROOT
BRANCH  10   9
ATOM      4  C   UNL     1      20.861  29.683   1.873  0.00  0.00    +0.077 A 
ATOM      5  C   UNL     1      20.275  29.292   0.624  0.00  0.00    +0.048 A 
ATOM      6  C   UNL     1      19.740  27.987   0.537  0.00  0.00    +0.116 A 
ATOM      7  N   UNL     1      19.793  27.145   1.626  0.00  0.00    -0.223 NA
ATOM      8  C   UNL     1      20.367  27.552   2.817  0.00  0.00    +0.220 A 
ATOM      9  N   UNL     1      20.423  26.724   3.927  0.00  0.00    -0.283 N 
ATOM     36  H   UNL     1      20.862  27.060   4.784  0.00  0.00    +0.155 HD
ATOM     37  N   UNL     1      20.885  28.793   2.924  0.00  0.00    -0.214 NA
BRANCH   4   3
ATOM      1  C   UNL     1      21.990  33.008   3.598  0.00  0.00    +0.020 A 
ATOM      2  C   UNL     1      21.390  31.707   3.410  0.00  0.00    +0.013 A 
ATOM      3  C   UNL     1      21.464  31.031   2.121  0.00  0.00    +0.019 A 
ATOM     38  C   UNL     1      22.159  31.703   1.034  0.00  0.00    +0.120 A 
ATOM     39  N   UNL     1      22.726  32.956   1.243  0.00  0.00    -0.263 NA
ATOM     40  C   UNL     1      22.660  33.617   2.479  0.00  0.00    +0.111 A 
ENDBRANCH   4   3
ENDBRANCH  10   9
BRANCH  12  13
ATOM     13  N   UNL     1      16.885  23.514   5.316  0.00  0.00    -0.281 N 
ATOM     14  C   UNL     1      16.758  22.781   6.485  0.00  0.00    +0.248 C 
ATOM     30  O   UNL     1      17.652  22.114   6.983  0.00  0.00    -0.270 OA
ATOM     31  H   UNL     1      16.017  23.862   4.909  0.00  0.00    +0.155 HD
BRANCH  14  15
ATOM     15  C   UNL     1      15.443  22.778   7.196  0.00  0.00    +0.037 A 
ATOM     16  C   UNL     1      15.368  22.646   8.653  0.00  0.00    +0.013 A 
ATOM     17  C   UNL     1      14.086  22.629   9.312  0.00  0.00    +0.005 A 
ATOM     18  C   UNL     1      12.868  22.746   8.513  0.00  0.00    -0.033 A 
ATOM     28  C   UNL     1      12.973  22.882   7.070  0.00  0.00    +0.005 A 
ATOM     29  C   UNL     1      14.227  22.898   6.420  0.00  0.00    +0.013 A 
BRANCH  18  19
ATOM     19  C   UNL     1      11.457  22.716   9.130  0.00  0.00    +0.119 C 
BRANCH  19  20
ATOM     20  N   UNL     1      10.708  24.007   9.187  0.00  0.00    -0.302 NA
ATOM     21  C   UNL     1       9.590  24.070   8.142  0.00  0.00    +0.066 C 
ATOM     22  C   UNL     1       8.803  25.417   8.231  0.00  0.00    -0.064 C 
ATOM     23  N   UNL     1       9.775  26.585   8.054  0.00  0.00    +0.379 N 
ATOM     24  C   UNL     1       9.029  27.852   8.079  0.00  0.00    -0.096 C 
ATOM     25  H   UNL     1      10.242  26.487   7.047  0.00  0.00    -0.082 HD
ATOM     26  C   UNL     1      10.891  26.529   9.088  0.00  0.00    -0.064 C 
ATOM     27  C   UNL     1      11.649  25.174   9.010  0.00  0.00    +0.066 C 
ENDBRANCH  19  20
ENDBRANCH  18  19
ENDBRANCH  14  15
ENDBRANCH  12  13
TORSDOF 6
ENDMDL
