MODEL 1
REMARK VINA RESULT:      -8.5      0.000      0.000
REMARK  Name = C:\Users\Docking\Desktop\test protocol\1iep_ligandH.pdb
REMARK  8 active torsions:
REMARK  status: ('A' for Active; 'I' for Inactive)
REMARK    1  A    between atoms: _5  and  _11
REMARK    2  A    between atoms: _19  and  _21
REMARK    3  A    between atoms: _22  and  _66
REMARK    4  A    between atoms: _27  and  _30
REMARK    5  A    between atoms: _32  and  _33
REMARK    6  A    between atoms: _38  and  _43
REMARK    7  A    between atoms: _43  and  _46
REMARK    8  A    between atoms: _53  and  _55
REMARK                            x       y       z     vdW  Elec       q    Type
REMARK                         _______ _______ _______ _____ _____    ______ ____
ROOT
ATOM     10  C   UNL     1      14.911  21.350   7.833  0.00  0.00    +0.038 A 
ATOM     11  C   UNL     1      16.093  21.488   8.604  0.00  0.00    +0.047 A 
ATOM     12  C   UNL     1      17.041  20.392   8.729  0.00  0.00    +0.035 A 
ATOM     32  C   UNL     1      16.754  19.169   8.055  0.00  0.00    +0.024 A 
ATOM     33  C   UNL     1      15.556  19.012   7.268  0.00  0.00    +0.007 A 
ATOM     34  C   UNL     1      14.616  20.089   7.142  0.00  0.00    -0.029 A 
ATOM     35  C   UNL     1      13.345  19.862   6.291  0.00  0.00    +0.045 C 
ENDROOT
BRANCH  10   9
ATOM      4  C   UNL     1      11.360  24.074   9.570  0.00  0.00    +0.077 A 
ATOM      5  C   UNL     1      11.219  23.250  10.735  0.00  0.00    +0.048 A 
ATOM      6  C   UNL     1      12.074  22.130  10.847  0.00  0.00    +0.116 A 
ATOM      7  N   UNL     1      12.998  21.865   9.860  0.00  0.00    -0.223 NA
ATOM      8  C   UNL     1      13.108  22.679   8.747  0.00  0.00    +0.220 A 
ATOM      9  N   UNL     1      14.035  22.436   7.746  0.00  0.00    -0.283 N 
ATOM     36  H   UNL     1      14.080  23.056   6.938  0.00  0.00    +0.155 HD
ATOM     37  N   UNL     1      12.301  23.753   8.617  0.00  0.00    -0.214 NA
BRANCH   4   3
ATOM      1  C   UNL     1       8.343  26.547   9.292  0.00  0.00    +0.020 A 
ATOM      2  C   UNL     1       9.097  25.344   9.560  0.00  0.00    +0.013 A 
ATOM      3  C   UNL     1      10.532  25.294   9.310  0.00  0.00    +0.019 A 
ATOM     38  C   UNL     1      11.179  26.487   8.787  0.00  0.00    +0.120 A 
ATOM     39  N   UNL     1      10.427  27.631   8.538  0.00  0.00    -0.263 NA
ATOM     40  C   UNL     1       9.045  27.691   8.772  0.00  0.00    +0.111 A 
ENDBRANCH   4   3
ENDBRANCH  10   9
BRANCH  12  13
ATOM     13  N   UNL     1      18.255  20.470   9.504  0.00  0.00    -0.281 N 
ATOM     14  C   UNL     1      19.481  20.986   9.117  0.00  0.00    +0.248 C 
ATOM     30  O   UNL     1      19.780  21.265   7.966  0.00  0.00    -0.270 OA
ATOM     31  H   UNL     1      18.203  20.101  10.454  0.00  0.00    +0.155 HD
BRANCH  14  15
ATOM     15  C   UNL     1      20.531  21.210  10.157  0.00  0.00    +0.037 A 
ATOM     16  C   UNL     1      20.787  20.218  11.204  0.00  0.00    +0.013 A 
ATOM     17  C   UNL     1      21.794  20.466  12.205  0.00  0.00    +0.005 A 
ATOM     18  C   UNL     1      22.554  21.714  12.162  0.00  0.00    -0.033 A 
ATOM     28  C   UNL     1      22.283  22.678  11.109  0.00  0.00    +0.005 A 
ATOM     29  C   UNL     1      21.296  22.438  10.127  0.00  0.00    +0.013 A 
BRANCH  18  19
ATOM     19  C   UNL     1      23.633  22.072  13.201  0.00  0.00    +0.119 C 
BRANCH  19  20
ATOM     20  N   UNL     1      23.164  22.526  14.544  0.00  0.00    -0.302 NA
ATOM     21  C   UNL     1      22.861  24.027  14.569  0.00  0.00    +0.066 C 
ATOM     22  C   UNL     1      22.350  24.481  15.976  0.00  0.00    -0.064 C 
ATOM     23  N   UNL     1      23.394  24.122  17.035  0.00  0.00    +0.379 N 
ATOM     24  C   UNL     1      22.943  24.599  18.350  0.00  0.00    -0.096 C 
ATOM     25  H   UNL     1      24.333  24.665  16.781  0.00  0.00    -0.082 HD
ATOM     26  C   UNL     1      23.703  22.631  17.015  0.00  0.00    -0.064 C 
ATOM     27  C   UNL     1      24.182  22.185  15.605  0.00  0.00    +0.066 C 
ENDBRANCH  19  20
ENDBRANCH  18  19
ENDBRANCH  14  15
ENDBRANCH  12  13
TORSDOF 6
ENDMDL
MODEL 2
REMARK VINA RESULT:      -8.3      7.644     12.116
REMARK  Name = C:\Users\Docking\Desktop\test protocol\1iep_ligandH.pdb
REMARK  8 active torsions:
REMARK  status: ('A' for Active; 'I' for Inactive)
REMARK    1  A    between atoms: _5  and  _11
REMARK    2  A    between atoms: _19  and  _21
REMARK    3  A    between atoms: _22  and  _66
REMARK    4  A    between atoms: _27  and  _30
REMARK    5  A    between atoms: _32  and  _33
REMARK    6  A    between atoms: _38  and  _43
REMARK    7  A    between atoms: _43  and  _46
REMARK    8  A    between atoms: _53  and  _55
REMARK                            x       y       z     vdW  Elec       q    Type
REMARK                         _______ _______ _______ _____ _____    ______ ____
ROOT
ATOM     10  C   UNL     1      20.044  25.564   4.275  0.00  0.00    +0.038 A 
ATOM     11  C   UNL     1      18.719  25.376   4.746  0.00  0.00    +0.047 A 
ATOM     12  C   UNL     1      18.140  24.046   4.853  0.00  0.00    +0.035 A 
ATOM     32  C   UNL     1      18.940  22.929   4.475  0.00  0.00    +0.024 A 
ATOM     33  C   UNL     1      20.288  23.102   3.994  0.00  0.00    +0.007 A 
ATOM     34  C   UNL     1      20.864  24.411   3.883  0.00  0.00    -0.029 A 
ATOM     35  C   UNL     1      22.311  24.538   3.355  0.00  0.00    +0.045 C 
ENDROOT
BRANCH  10   9
ATOM      4  C   UNL     1      21.134  29.533   1.805  0.00  0.00    +0.077 A 
ATOM      5  C   UNL     1      20.682  28.959   0.570  0.00  0.00    +0.048 A 
ATOM      6  C   UNL     1      20.183  27.638   0.612  0.00  0.00    +0.116 A 
ATOM      7  N   UNL     1      20.143  26.951   1.806  0.00  0.00    -0.223 NA
ATOM      8  C   UNL     1      20.588  27.533   2.979  0.00  0.00    +0.220 A 
ATOM      9  N   UNL     1      20.549  26.864   4.193  0.00  0.00    -0.283 N 
ATOM     36  H   UNL     1      20.894  27.325   5.034  0.00  0.00    +0.155 HD
ATOM     37  N   UNL     1      21.070  28.793   2.965  0.00  0.00    -0.214 NA
BRANCH   4   3
ATOM      1  C   UNL     1      22.618  33.046   0.938  0.00  0.00    +0.020 A 
ATOM      2  C   UNL     1      22.093  31.711   0.769  0.00  0.00    +0.013 A 
ATOM      3  C   UNL     1      21.684  30.920   1.923  0.00  0.00    +0.019 A 
ATOM     38  C   UNL     1      21.819  31.514   3.244  0.00  0.00    +0.120 A 
ATOM     39  N   UNL     1      22.330  32.802   3.376  0.00  0.00    -0.263 NA
ATOM     40  C   UNL     1      22.728  33.572   2.274  0.00  0.00    +0.111 A 
ENDBRANCH   4   3
ENDBRANCH  10   9
BRANCH  12  13
ATOM     13  N   UNL     1      16.798  23.795   5.317  0.00  0.00    -0.281 N 
ATOM     14  C   UNL     1      16.404  23.103   6.451  0.00  0.00    +0.248 C 
ATOM     30  O   UNL     1      17.146  22.409   7.129  0.00  0.00    -0.270 OA
ATOM     31  H   UNL     1      16.047  24.172   4.739  0.00  0.00    +0.155 HD
BRANCH  14  15
ATOM     15  C   UNL     1      14.977  23.183   6.885  0.00  0.00    +0.037 A 
ATOM     16  C   UNL     1      13.884  23.188   5.909  0.00  0.00    +0.013 A 
ATOM     17  C   UNL     1      12.516  23.283   6.355  0.00  0.00    +0.005 A 
ATOM     18  C   UNL     1      12.234  23.372   7.785  0.00  0.00    -0.033 A 
ATOM     28  C   UNL     1      13.336  23.359   8.732  0.00  0.00    +0.005 A 
ATOM     29  C   UNL     1      14.678  23.267   8.299  0.00  0.00    +0.013 A 
BRANCH  18  19
ATOM     19  C   UNL     1      10.806  23.497   8.350  0.00  0.00    +0.119 C 
BRANCH  19  20
ATOM     20  N   UNL     1      10.308  22.378   9.204  0.00  0.00    -0.302 NA
ATOM     21  C   UNL     1      10.659  21.008   8.617  0.00  0.00    +0.066 C 
ATOM     22  C   UNL     1      10.149  19.849   9.534  0.00  0.00    -0.064 C 
ATOM     23  N   UNL     1       8.638  19.983   9.730  0.00  0.00    +0.379 N 
ATOM     24  C   UNL     1       8.147  18.862  10.545  0.00  0.00    -0.096 C 
ATOM     25  H   UNL     1       8.159  19.907   8.726  0.00  0.00    -0.082 HD
ATOM     26  C   UNL     1       8.280  21.344  10.311  0.00  0.00    -0.064 C 
ATOM     27  C   UNL     1       8.817  22.489   9.406  0.00  0.00    +0.066 C 
ENDBRANCH  19  20
ENDBRANCH  18  19
ENDBRANCH  14  15
ENDBRANCH  12  13
TORSDOF 6
ENDMDL
MODEL 3
REMARK VINA RESULT:      -8.3      7.523     12.545
REMARK  Name = C:\Users\Docking\Desktop\test protocol\1iep_ligandH.pdb
REMARK  8 active torsions:
REMARK  status: ('A' for Active; 'I' for Inactive)
REMARK    1  A    between atoms: _5  and  _11
REMARK    2  A    between atoms: _19  and  _21
REMARK    3  A    between atoms: _22  and  _66
REMARK    4  A    between atoms: _27  and  _30
REMARK    5  A    between atoms: _32  and  _33
REMARK    6  A    between atoms: _38  and  _43
REMARK    7  A    between atoms: _43  and  _46
REMARK    8  A    between atoms: _53  and  _55
REMARK                            x       y       z     vdW  Elec       q    Type
REMARK                         _______ _______ _______ _____ _____    ______ ____
ROOT
ATOM     10  C   UNL     1      20.083  25.481   4.262  0.00  0.00    +0.038 A 
ATOM     11  C   UNL     1      18.753  25.335   4.731  0.00  0.00    +0.047 A 
ATOM     12  C   UNL     1      18.124  24.025   4.816  0.00  0.00    +0.035 A 
ATOM     32  C   UNL     1      18.881  22.885   4.417  0.00  0.00    +0.024 A 
ATOM     33  C   UNL     1      20.234  23.016   3.937  0.00  0.00    +0.007 A 
ATOM     34  C   UNL     1      20.859  24.305   3.849  0.00  0.00    -0.029 A 
ATOM     35  C   UNL     1      22.310  24.386   3.320  0.00  0.00    +0.045 C 
ENDROOT
BRANCH  10   9
ATOM      4  C   UNL     1      21.140  29.527   1.908  0.00  0.00    +0.077 A 
ATOM      5  C   UNL     1      20.564  29.038   0.688  0.00  0.00    +0.048 A 
ATOM      6  C   UNL     1      20.013  27.738   0.707  0.00  0.00    +0.116 A 
ATOM      7  N   UNL     1      20.040  26.991   1.865  0.00  0.00    -0.223 NA
ATOM      8  C   UNL     1      20.605  27.492   3.023  0.00  0.00    +0.220 A 
ATOM      9  N   UNL     1      20.637  26.761   4.201  0.00  0.00    -0.283 N 
ATOM     36  H   UNL     1      21.069  27.164   5.033  0.00  0.00    +0.155 HD
ATOM     37  N   UNL     1      21.140  28.731   3.031  0.00  0.00    -0.214 NA
BRANCH   4   3
ATOM      1  C   UNL     1      22.613  32.821   3.419  0.00  0.00    +0.020 A 
ATOM      2  C   UNL     1      22.012  31.510   3.339  0.00  0.00    +0.013 A 
ATOM      3  C   UNL     1      21.760  30.883   2.048  0.00  0.00    +0.019 A 
ATOM     38  C   UNL     1      22.130  31.616   0.846  0.00  0.00    +0.120 A 
ATOM     39  N   UNL     1      22.706  32.878   0.954  0.00  0.00    -0.263 NA
ATOM     40  C   UNL     1      22.953  33.492   2.191  0.00  0.00    +0.111 A 
ENDBRANCH   4   3
ENDBRANCH  10   9
BRANCH  12  13
ATOM     13  N   UNL     1      16.774  23.816   5.277  0.00  0.00    -0.281 N 
ATOM     14  C   UNL     1      16.356  23.124   6.402  0.00  0.00    +0.248 C 
ATOM     30  O   UNL     1      17.072  22.394   7.071  0.00  0.00    -0.270 OA
ATOM     31  H   UNL     1      16.037  24.228   4.705  0.00  0.00    +0.155 HD
BRANCH  14  15
ATOM     15  C   UNL     1      14.932  23.250   6.839  0.00  0.00    +0.037 A 
ATOM     16  C   UNL     1      14.468  24.419   7.590  0.00  0.00    +0.013 A 
ATOM     17  C   UNL     1      13.093  24.507   8.014  0.00  0.00    +0.005 A 
ATOM     18  C   UNL     1      12.171  23.421   7.686  0.00  0.00    -0.033 A 
ATOM     28  C   UNL     1      12.657  22.275   6.936  0.00  0.00    +0.005 A 
ATOM     29  C   UNL     1      14.004  22.185   6.519  0.00  0.00    +0.013 A 
BRANCH  18  19
ATOM     19  C   UNL     1      10.693  23.421   8.117  0.00  0.00    +0.119 C 
BRANCH  19  20
ATOM     20  N   UNL     1       9.922  24.685   7.918  0.00  0.00    -0.302 NA
ATOM     21  C   UNL     1       8.623  24.699   8.728  0.00  0.00    +0.066 C 
ATOM     22  C   UNL     1       7.841  26.038   8.526  0.00  0.00    -0.064 C 
ATOM     23  N   UNL     1       7.554  26.238   7.037  0.00  0.00    +0.379 N 
ATOM     24  C   UNL     1       6.768  27.466   6.849  0.00  0.00    -0.096 C 
ATOM     25  H   UNL     1       6.928  25.381   6.695  0.00  0.00    -0.082 HD
ATOM     26  C   UNL     1       8.841  26.223   6.224  0.00  0.00    -0.064 C 
ATOM     27  C   UNL     1       9.624  24.901   6.455  0.00  0.00    +0.066 C 
ENDBRANCH  19  20
ENDBRANCH  18  19
ENDBRANCH  14  15
ENDBRANCH  12  13
TORSDOF 6
ENDMDL
MODEL 4
REMARK VINA RESULT:      -8.1      8.272     16.101
REMARK  Name = C:\Users\Docking\Desktop\test protocol\1iep_ligandH.pdb
REMARK  8 active torsions:
REMARK  status: ('A' for Active; 'I' for Inactive)
REMARK    1  A    between atoms: _5  and  _11
REMARK    2  A    between atoms: _19  and  _21
REMARK    3  A    between atoms: _22  and  _66
REMARK    4  A    between atoms: _27  and  _30
REMARK    5  A    between atoms: _32  and  _33
REMARK    6  A    between atoms: _38  and  _43
REMARK    7  A    between atoms: _43  and  _46
REMARK    8  A    between atoms: _53  and  _55
REMARK                            x       y       z     vdW  Elec       q    Type
REMARK                         _______ _______ _______ _____ _____    ______ ____
ROOT
ATOM     10  C   UNL     1       9.532  25.182   8.183  0.00  0.00    +0.038 A 
ATOM     11  C   UNL     1       8.148  25.444   8.017  0.00  0.00    +0.047 A 
ATOM     12  C   UNL     1       7.631  26.804   8.043  0.00  0.00    +0.035 A 
ATOM     32  C   UNL     1       8.553  27.873   8.235  0.00  0.00    +0.024 A 
ATOM     33  C   UNL     1       9.963  27.625   8.406  0.00  0.00    +0.007 A 
ATOM     34  C   UNL     1      10.478  26.285   8.385  0.00  0.00    -0.029 A 
ATOM     35  C   UNL     1      11.998  26.077   8.579  0.00  0.00    +0.045 C 
ENDROOT
BRANCH  10   9
ATOM      4  C   UNL     1      10.865  21.110  10.346  0.00  0.00    +0.077 A 
ATOM      5  C   UNL     1      10.693  21.678  11.652  0.00  0.00    +0.048 A 
ATOM      6  C   UNL     1      10.268  23.023  11.723  0.00  0.00    +0.116 A 
ATOM      7  N   UNL     1      10.034  23.738  10.568  0.00  0.00    -0.223 NA
ATOM      8  C   UNL     1      10.210  23.160   9.324  0.00  0.00    +0.220 A 
ATOM      9  N   UNL     1       9.973  23.857   8.150  0.00  0.00    -0.283 N 
ATOM     36  H   UNL     1      10.122  23.397   7.252  0.00  0.00    +0.155 HD
ATOM     37  N   UNL     1      10.617  21.877   9.229  0.00  0.00    -0.214 NA
BRANCH   4   3
ATOM      1  C   UNL     1      12.819  17.979   9.050  0.00  0.00    +0.020 A 
ATOM      2  C   UNL     1      12.433  19.357   9.248  0.00  0.00    +0.013 A 
ATOM      3  C   UNL     1      11.306  19.699  10.106  0.00  0.00    +0.019 A 
ATOM     38  C   UNL     1      10.585  18.615  10.755  0.00  0.00    +0.120 A 
ATOM     39  N   UNL     1      10.979  17.297  10.545  0.00  0.00    -0.263 NA
ATOM     40  C   UNL     1      12.061  16.956   9.720  0.00  0.00    +0.111 A 
ENDBRANCH   4   3
ENDBRANCH  10   9
BRANCH  12  13
ATOM     13  N   UNL     1       6.235  27.131   7.889  0.00  0.00    -0.281 N 
ATOM     14  C   UNL     1       5.548  27.401   6.716  0.00  0.00    +0.248 C 
ATOM     30  O   UNL     1       6.080  27.613   5.637  0.00  0.00    -0.270 OA
ATOM     31  H   UNL     1       5.687  27.167   8.748  0.00  0.00    +0.155 HD
BRANCH  14  15
ATOM     15  C   UNL     1       4.055  27.458   6.751  0.00  0.00    +0.037 A 
ATOM     16  C   UNL     1       3.260  26.301   7.171  0.00  0.00    +0.013 A 
ATOM     17  C   UNL     1       1.820  26.378   7.180  0.00  0.00    +0.005 A 
ATOM     18  C   UNL     1       1.167  27.618   6.768  0.00  0.00    -0.033 A 
ATOM     28  C   UNL     1       1.980  28.751   6.360  0.00  0.00    +0.005 A 
ATOM     29  C   UNL     1       3.391  28.680   6.350  0.00  0.00    +0.013 A 
BRANCH  18  19
ATOM     19  C   UNL     1      -0.364  27.782   6.725  0.00  0.00    +0.119 C 
BRANCH  19  20
ATOM     20  N   UNL     1      -1.088  27.784   8.031  0.00  0.00    -0.302 NA
ATOM     21  C   UNL     1      -0.349  28.600   9.096  0.00  0.00    +0.066 C 
ATOM     22  C   UNL     1      -1.131  28.610  10.450  0.00  0.00    -0.064 C 
ATOM     23  N   UNL     1      -1.347  27.171  10.922  0.00  0.00    +0.379 N 
ATOM     24  C   UNL     1      -2.031  27.179  12.223  0.00  0.00    -0.096 C 
ATOM     25  H   UNL     1      -0.343  26.711  11.071  0.00  0.00    -0.082 HD
ATOM     26  C   UNL     1      -2.078  26.352   9.868  0.00  0.00    -0.064 C 
ATOM     27  C   UNL     1      -1.308  26.373   8.519  0.00  0.00    +0.066 C 
ENDBRANCH  19  20
ENDBRANCH  18  19
ENDBRANCH  14  15
ENDBRANCH  12  13
TORSDOF 6
ENDMDL
MODEL 5
REMARK VINA RESULT:      -8.1      8.339     16.281
REMARK  Name = C:\Users\Docking\Desktop\test protocol\1iep_ligandH.pdb
REMARK  8 active torsions:
REMARK  status: ('A' for Active; 'I' for Inactive)
REMARK    1  A    between atoms: _5  and  _11
REMARK    2  A    between atoms: _19  and  _21
REMARK    3  A    between atoms: _22  and  _66
REMARK    4  A    between atoms: _27  and  _30
REMARK    5  A    between atoms: _32  and  _33
REMARK    6  A    between atoms: _38  and  _43
REMARK    7  A    between atoms: _43  and  _46
REMARK    8  A    between atoms: _53  and  _55
REMARK                            x       y       z     vdW  Elec       q    Type
REMARK                         _______ _______ _______ _____ _____    ______ ____
ROOT
ATOM     10  C   UNL     1       9.606  25.160   8.124  0.00  0.00    +0.038 A 
ATOM     11  C   UNL     1       8.224  25.474   8.068  0.00  0.00    +0.047 A 
ATOM     12  C   UNL     1       7.765  26.854   8.073  0.00  0.00    +0.035 A 
ATOM     32  C   UNL     1       8.742  27.891   8.133  0.00  0.00    +0.024 A 
ATOM     33  C   UNL     1      10.151  27.590   8.191  0.00  0.00    +0.007 A 
ATOM     34  C   UNL     1      10.609  26.230   8.189  0.00  0.00    -0.029 A 
ATOM     35  C   UNL     1      12.131  25.966   8.259  0.00  0.00    +0.045 C 
ENDROOT
BRANCH  10   9
ATOM      4  C   UNL     1      10.796  21.086  10.364  0.00  0.00    +0.077 A 
ATOM      5  C   UNL     1      10.667  21.690  11.658  0.00  0.00    +0.048 A 
ATOM      6  C   UNL     1      10.299  23.054  11.704  0.00  0.00    +0.116 A 
ATOM      7  N   UNL     1      10.079  23.751  10.536  0.00  0.00    -0.223 NA
ATOM      8  C   UNL     1      10.215  23.138   9.304  0.00  0.00    +0.220 A 
ATOM      9  N   UNL     1       9.991  23.818   8.116  0.00  0.00    -0.283 N 
ATOM     36  H   UNL     1      10.109  23.332   7.227  0.00  0.00    +0.155 HD
ATOM     37  N   UNL     1      10.566  21.837   9.233  0.00  0.00    -0.214 NA
BRANCH   4   3
ATOM      1  C   UNL     1      12.613  17.847   9.133  0.00  0.00    +0.020 A 
ATOM      2  C   UNL     1      12.289  19.245   9.304  0.00  0.00    +0.013 A 
ATOM      3  C   UNL     1      11.175  19.653  10.151  0.00  0.00    +0.019 A 
ATOM     38  C   UNL     1      10.404  18.614  10.817  0.00  0.00    +0.120 A 
ATOM     39  N   UNL     1      10.738  17.276  10.632  0.00  0.00    -0.263 NA
ATOM     40  C   UNL     1      11.807  16.871   9.818  0.00  0.00    +0.111 A 
ENDBRANCH   4   3
ENDBRANCH  10   9
BRANCH  12  13
ATOM     13  N   UNL     1       6.375  27.234   8.026  0.00  0.00    -0.281 N 
ATOM     14  C   UNL     1       5.477  27.051   6.987  0.00  0.00    +0.248 C 
ATOM     30  O   UNL     1       5.790  26.723   5.853  0.00  0.00    -0.270 OA
ATOM     31  H   UNL     1       6.008  27.693   8.860  0.00  0.00    +0.155 HD
BRANCH  14  15
ATOM     15  C   UNL     1       4.022  27.279   7.242  0.00  0.00    +0.037 A 
ATOM     16  C   UNL     1       3.059  26.177   7.189  0.00  0.00    +0.013 A 
ATOM     17  C   UNL     1       1.659  26.427   7.422  0.00  0.00    +0.005 A 
ATOM     18  C   UNL     1       1.213  27.788   7.712  0.00  0.00    -0.033 A 
ATOM     28  C   UNL     1       2.191  28.863   7.764  0.00  0.00    +0.005 A 
ATOM     29  C   UNL     1       3.564  28.621   7.535  0.00  0.00    +0.013 A 
BRANCH  18  19
ATOM     19  C   UNL     1      -0.264  28.151   7.953  0.00  0.00    +0.119 C 
BRANCH  19  20
ATOM     20  N   UNL     1      -0.569  29.044   9.111  0.00  0.00    -0.302 NA
ATOM     21  C   UNL     1      -1.595  28.421  10.062  0.00  0.00    +0.066 C 
ATOM     22  C   UNL     1      -1.885  29.358  11.279  0.00  0.00    -0.064 C 
ATOM     23  N   UNL     1      -2.373  30.715  10.769  0.00  0.00    +0.379 N 
ATOM     24  C   UNL     1      -2.702  31.579  11.913  0.00  0.00    -0.096 C 
ATOM     25  H   UNL     1      -3.312  30.543  10.194  0.00  0.00    -0.082 HD
ATOM     26  C   UNL     1      -1.360  31.340   9.821  0.00  0.00    -0.064 C 
ATOM     27  C   UNL     1      -1.056  30.389   8.631  0.00  0.00    +0.066 C 
ENDBRANCH  19  20
ENDBRANCH  18  19
ENDBRANCH  14  15
ENDBRANCH  12  13
TORSDOF 6
ENDMDL
