MODEL 1
REMARK VINA RESULT:      -8.5      0.000      0.000
REMARK  Name = C:\Users\Docking\Desktop\test protocol\1iep_ligandH.pdb
REMARK  8 active torsions:
REMARK  status: ('A' for Active; 'I' for Inactive)
REMARK    1  A    between atoms: _5  and  _11
REMARK    2  A    between atoms: _19  and  _21
REMARK    3  A    between atoms: _22  and  _66
REMARK    4  A    between atoms: _27  and  _30
REMARK    5  A    between atoms: _32  and  _33
REMARK    6  A    between atoms: _38  and  _43
REMARK    7  A    between atoms: _43  and  _46
REMARK    8  A    between atoms: _53  and  _55
REMARK                            x       y       z     vdW  Elec       q    Type
REMARK                         _______ _______ _______ _____ _____    ______ ____
ROOT
ATOM     10  C   UNL     1      14.553  22.355   7.438  0.00  0.00    +0.038 A 
ATOM     11  C   UNL     1      15.676  22.283   8.300  0.00  0.00    +0.047 A 
ATOM     12  C   UNL     1      16.641  21.200   8.190  0.00  0.00    +0.035 A 
ATOM     32  C   UNL     1      16.432  20.208   7.188  0.00  0.00    +0.024 A 
ATOM     33  C   UNL     1      15.295  20.266   6.303  0.00  0.00    +0.007 A 
ATOM     34  C   UNL     1      14.338  21.330   6.409  0.00  0.00    -0.029 A 
ATOM     35  C   UNL     1      13.134  21.338   5.439  0.00  0.00    +0.045 C 
ENDROOT
BRANCH  10   9
ATOM      4  C   UNL     1      10.802  24.461   9.569  0.00  0.00    +0.077 A 
ATOM      5  C   UNL     1      10.591  23.339  10.438  0.00  0.00    +0.048 A 
ATOM      6  C   UNL     1      11.465  22.237  10.300  0.00  0.00    +0.116 A 
ATOM      7  N   UNL     1      12.472  22.266   9.359  0.00  0.00    -0.223 NA
ATOM      8  C   UNL     1      12.647  23.363   8.536  0.00  0.00    +0.220 A 
ATOM      9  N   UNL     1      13.658  23.417   7.588  0.00  0.00    -0.283 N 
ATOM     36  H   UNL     1      13.749  24.241   6.995  0.00  0.00    +0.155 HD
ATOM     37  N   UNL     1      11.825  24.427   8.647  0.00  0.00    -0.214 NA
BRANCH   4   3
ATOM      1  C   UNL     1       8.321  27.265  10.699  0.00  0.00    +0.020 A 
ATOM      2  C   UNL     1       9.111  26.056  10.723  0.00  0.00    +0.013 A 
ATOM      3  C   UNL     1       9.964  25.701   9.596  0.00  0.00    +0.019 A 
ATOM     38  C   UNL     1       9.996  26.599   8.451  0.00  0.00    +0.120 A 
ATOM     39  N   UNL     1       9.224  27.756   8.456  0.00  0.00    -0.263 NA
ATOM     40  C   UNL     1       8.398  28.107   9.534  0.00  0.00    +0.111 A 
ENDBRANCH   4   3
ENDBRANCH  10   9
BRANCH  12  13
ATOM     13  N   UNL     1      17.797  21.070   9.042  0.00  0.00    -0.281 N 
ATOM     14  C   UNL     1      19.129  21.242   8.703  0.00  0.00    +0.248 C 
ATOM     30  O   UNL     1      19.545  21.324   7.557  0.00  0.00    -0.270 OA
ATOM     31  H   UNL     1      17.610  20.822  10.014  0.00  0.00    +0.155 HD
BRANCH  14  15
ATOM     15  C   UNL     1      20.148  21.318   9.794  0.00  0.00    +0.037 A 
ATOM     16  C   UNL     1      20.280  20.248  10.787  0.00  0.00    +0.013 A 
ATOM     17  C   UNL     1      21.259  20.354  11.839  0.00  0.00    +0.005 A 
ATOM     18  C   UNL     1      22.116  21.536  11.903  0.00  0.00    -0.033 A 
ATOM     28  C   UNL     1      21.968  22.579  10.902  0.00  0.00    +0.005 A 
ATOM     29  C   UNL     1      21.008  22.479   9.870  0.00  0.00    +0.013 A 
BRANCH  18  19
ATOM     19  C   UNL     1      23.174  21.743  13.003  0.00  0.00    +0.119 C 
BRANCH  19  20
ATOM     20  N   UNL     1      22.699  22.268  14.318  0.00  0.00    -0.302 NA
ATOM     21  C   UNL     1      22.434  23.775  14.273  0.00  0.00    +0.066 C 
ATOM     22  C   UNL     1      21.916  24.303  15.651  0.00  0.00    -0.064 C 
ATOM     23  N   UNL     1      22.936  23.965  16.739  0.00  0.00    +0.379 N 
ATOM     24  C   UNL     1      22.480  24.511  18.026  0.00  0.00    -0.096 C 
ATOM     25  H   UNL     1      23.893  24.474  16.476  0.00  0.00    -0.082 HD
ATOM     26  C   UNL     1      23.208  22.468  16.789  0.00  0.00    -0.064 C 
ATOM     27  C   UNL     1      23.694  21.948  15.407  0.00  0.00    +0.066 C 
ENDBRANCH  19  20
ENDBRANCH  18  19
ENDBRANCH  14  15
ENDBRANCH  12  13
TORSDOF 6
ENDMDL
MODEL 2
REMARK VINA RESULT:      -8.2      7.166     11.826
REMARK  Name = C:\Users\Docking\Desktop\test protocol\1iep_ligandH.pdb
REMARK  8 active torsions:
REMARK  status: ('A' for Active; 'I' for Inactive)
REMARK    1  A    between atoms: _5  and  _11
REMARK    2  A    between atoms: _19  and  _21
REMARK    3  A    between atoms: _22  and  _66
REMARK    4  A    between atoms: _27  and  _30
REMARK    5  A    between atoms: _32  and  _33
REMARK    6  A    between atoms: _38  and  _43
REMARK    7  A    between atoms: _43  and  _46
REMARK    8  A    between atoms: _53  and  _55
REMARK                            x       y       z     vdW  Elec       q    Type
REMARK                         _______ _______ _______ _____ _____    ______ ____
ROOT
ATOM     10  C   UNL     1      19.871  25.360   4.155  0.00  0.00    +0.038 A 
ATOM     11  C   UNL     1      18.596  25.134   4.735  0.00  0.00    +0.047 A 
ATOM     12  C   UNL     1      18.017  23.801   4.781  0.00  0.00    +0.035 A 
ATOM     32  C   UNL     1      18.764  22.720   4.229  0.00  0.00    +0.024 A 
ATOM     33  C   UNL     1      20.060  22.932   3.635  0.00  0.00    +0.007 A 
ATOM     34  C   UNL     1      20.636  24.245   3.585  0.00  0.00    -0.029 A 
ATOM     35  C   UNL     1      22.027  24.415   2.930  0.00  0.00    +0.045 C 
ENDROOT
BRANCH  10   9
ATOM      4  C   UNL     1      20.838  29.498   1.922  0.00  0.00    +0.077 A 
ATOM      5  C   UNL     1      20.308  29.018   0.678  0.00  0.00    +0.048 A 
ATOM      6  C   UNL     1      19.804  27.699   0.653  0.00  0.00    +0.116 A 
ATOM      7  N   UNL     1      19.831  26.926   1.793  0.00  0.00    -0.223 NA
ATOM      8  C   UNL     1      20.350  27.418   2.977  0.00  0.00    +0.220 A 
ATOM      9  N   UNL     1      20.380  26.661   4.138  0.00  0.00    -0.283 N 
ATOM     36  H   UNL     1      20.778  27.058   4.988  0.00  0.00    +0.155 HD
ATOM     37  N   UNL     1      20.839  28.675   3.026  0.00  0.00    -0.214 NA
BRANCH   4   3
ATOM      1  C   UNL     1      21.792  32.965   3.461  0.00  0.00    +0.020 A 
ATOM      2  C   UNL     1      21.224  31.643   3.332  0.00  0.00    +0.013 A 
ATOM      3  C   UNL     1      21.404  30.871   2.109  0.00  0.00    +0.019 A 
ATOM     38  C   UNL     1      22.172  31.470   1.027  0.00  0.00    +0.120 A 
ATOM     39  N   UNL     1      22.706  32.745   1.179  0.00  0.00    -0.263 NA
ATOM     40  C   UNL     1      22.538  33.498   2.351  0.00  0.00    +0.111 A 
ENDBRANCH   4   3
ENDBRANCH  10   9
BRANCH  12  13
ATOM     13  N   UNL     1      16.723  23.512   5.349  0.00  0.00    -0.281 N 
ATOM     14  C   UNL     1      16.441  22.809   6.509  0.00  0.00    +0.248 C 
ATOM     30  O   UNL     1      17.253  22.135   7.124  0.00  0.00    -0.270 OA
ATOM     31  H   UNL     1      15.918  23.869   4.834  0.00  0.00    +0.155 HD
BRANCH  14  15
ATOM     15  C   UNL     1      15.051  22.849   7.057  0.00  0.00    +0.037 A 
ATOM     16  C   UNL     1      14.801  22.815   8.500  0.00  0.00    +0.013 A 
ATOM     17  C   UNL     1      13.450  22.837   9.001  0.00  0.00    +0.005 A 
ATOM     18  C   UNL     1      12.337  22.896   8.057  0.00  0.00    -0.033 A 
ATOM     28  C   UNL     1      12.613  22.934   6.631  0.00  0.00    +0.005 A 
ATOM     29  C   UNL     1      13.936  22.911   6.135  0.00  0.00    +0.013 A 
BRANCH  18  19
ATOM     19  C   UNL     1      10.862  22.902   8.502  0.00  0.00    +0.119 C 
BRANCH  19  20
ATOM     20  N   UNL     1      10.127  24.199   8.415  0.00  0.00    -0.302 NA
ATOM     21  C   UNL     1      10.724  25.261   9.341  0.00  0.00    +0.066 C 
ATOM     22  C   UNL     1       9.957  26.618   9.220  0.00  0.00    -0.064 C 
ATOM     23  N   UNL     1       8.477  26.394   9.536  0.00  0.00    +0.379 N 
ATOM     24  C   UNL     1       7.764  27.678   9.480  0.00  0.00    -0.096 C 
ATOM     25  H   UNL     1       8.409  26.014  10.582  0.00  0.00    -0.082 HD
ATOM     26  C   UNL     1       7.876  25.337   8.621  0.00  0.00    -0.064 C 
ATOM     27  C   UNL     1       8.664  24.001   8.727  0.00  0.00    +0.066 C 
ENDBRANCH  19  20
ENDBRANCH  18  19
ENDBRANCH  14  15
ENDBRANCH  12  13
TORSDOF 6
ENDMDL
MODEL 3
REMARK VINA RESULT:      -8.0      5.684      7.705
REMARK  Name = C:\Users\Docking\Desktop\test protocol\1iep_ligandH.pdb
REMARK  8 active torsions:
REMARK  status: ('A' for Active; 'I' for Inactive)
REMARK    1  A    between atoms: _5  and  _11
REMARK    2  A    between atoms: _19  and  _21
REMARK    3  A    between atoms: _22  and  _66
REMARK    4  A    between atoms: _27  and  _30
REMARK    5  A    between atoms: _32  and  _33
REMARK    6  A    between atoms: _38  and  _43
REMARK    7  A    between atoms: _43  and  _46
REMARK    8  A    between atoms: _53  and  _55
REMARK                            x       y       z     vdW  Elec       q    Type
REMARK                         _______ _______ _______ _____ _____    ______ ____
ROOT
ATOM     10  C   UNL     1      12.601  23.240   8.215  0.00  0.00    +0.038 A 
ATOM     11  C   UNL     1      13.784  23.521   7.484  0.00  0.00    +0.047 A 
ATOM     12  C   UNL     1      15.074  23.001   7.911  0.00  0.00    +0.035 A 
ATOM     32  C   UNL     1      15.122  22.196   9.086  0.00  0.00    +0.024 A 
ATOM     33  C   UNL     1      13.930  21.901   9.841  0.00  0.00    +0.007 A 
ATOM     34  C   UNL     1      12.655  22.413   9.426  0.00  0.00    -0.029 A 
ATOM     35  C   UNL     1      11.411  22.070  10.278  0.00  0.00    +0.045 C 
ENDROOT
BRANCH  10   9
ATOM      4  C   UNL     1       9.216  26.641   8.162  0.00  0.00    +0.077 A 
ATOM      5  C   UNL     1       9.906  27.427   9.144  0.00  0.00    +0.048 A 
ATOM      6  C   UNL     1      11.125  26.916   9.643  0.00  0.00    +0.116 A 
ATOM      7  N   UNL     1      11.609  25.710   9.186  0.00  0.00    -0.223 NA
ATOM      8  C   UNL     1      10.918  24.977   8.239  0.00  0.00    +0.220 A 
ATOM      9  N   UNL     1      11.390  23.765   7.760  0.00  0.00    -0.283 N 
ATOM     36  H   UNL     1      10.846  23.251   7.067  0.00  0.00    +0.155 HD
ATOM     37  N   UNL     1       9.750  25.442   7.748  0.00  0.00    -0.214 NA
BRANCH   4   3
ATOM      1  C   UNL     1       5.476  27.675   7.660  0.00  0.00    +0.020 A 
ATOM      2  C   UNL     1       6.705  27.283   8.312  0.00  0.00    +0.013 A 
ATOM      3  C   UNL     1       7.917  27.048   7.538  0.00  0.00    +0.019 A 
ATOM     38  C   UNL     1       7.853  27.221   6.094  0.00  0.00    +0.120 A 
ATOM     39  N   UNL     1       6.655  27.598   5.494  0.00  0.00    -0.263 NA
ATOM     40  C   UNL     1       5.482  27.824   6.228  0.00  0.00    +0.111 A 
ENDBRANCH   4   3
ENDBRANCH  10   9
BRANCH  12  13
ATOM     13  N   UNL     1      16.309  23.260   7.214  0.00  0.00    -0.281 N 
ATOM     14  C   UNL     1      16.787  22.644   6.069  0.00  0.00    +0.248 C 
ATOM     30  O   UNL     1      16.319  21.622   5.588  0.00  0.00    -0.270 OA
ATOM     31  H   UNL     1      16.904  23.986   7.613  0.00  0.00    +0.155 HD
BRANCH  14  15
ATOM     15  C   UNL     1      17.961  23.241   5.364  0.00  0.00    +0.037 A 
ATOM     16  C   UNL     1      17.896  24.583   4.781  0.00  0.00    +0.013 A 
ATOM     17  C   UNL     1      19.038  25.128   4.091  0.00  0.00    +0.005 A 
ATOM     18  C   UNL     1      20.257  24.330   3.982  0.00  0.00    -0.033 A 
ATOM     28  C   UNL     1      20.296  23.003   4.574  0.00  0.00    +0.005 A 
ATOM     29  C   UNL     1      19.178  22.465   5.250  0.00  0.00    +0.013 A 
BRANCH  18  19
ATOM     19  C   UNL     1      21.517  24.824   3.245  0.00  0.00    +0.119 C 
BRANCH  19  20
ATOM     20  N   UNL     1      22.469  23.786   2.748  0.00  0.00    -0.302 NA
ATOM     21  C   UNL     1      23.924  24.147   3.057  0.00  0.00    +0.066 C 
ATOM     22  C   UNL     1      24.905  23.040   2.550  0.00  0.00    -0.064 C 
ATOM     23  N   UNL     1      24.705  22.834   1.047  0.00  0.00    +0.379 N 
ATOM     24  C   UNL     1      25.665  21.835   0.556  0.00  0.00    -0.096 C 
ATOM     25  H   UNL     1      24.933  23.800   0.540  0.00  0.00    -0.082 HD
ATOM     26  C   UNL     1      23.259  22.477   0.731  0.00  0.00    -0.064 C 
ATOM     27  C   UNL     1      22.291  23.570   1.265  0.00  0.00    +0.066 C 
ENDBRANCH  19  20
ENDBRANCH  18  19
ENDBRANCH  14  15
ENDBRANCH  12  13
TORSDOF 6
ENDMDL
MODEL 4
REMARK VINA RESULT:      -7.8      5.614      8.040
REMARK  Name = C:\Users\Docking\Desktop\test protocol\1iep_ligandH.pdb
REMARK  8 active torsions:
REMARK  status: ('A' for Active; 'I' for Inactive)
REMARK    1  A    between atoms: _5  and  _11
REMARK    2  A    between atoms: _19  and  _21
REMARK    3  A    between atoms: _22  and  _66
REMARK    4  A    between atoms: _27  and  _30
REMARK    5  A    between atoms: _32  and  _33
REMARK    6  A    between atoms: _38  and  _43
REMARK    7  A    between atoms: _43  and  _46
REMARK    8  A    between atoms: _53  and  _55
REMARK                            x       y       z     vdW  Elec       q    Type
REMARK                         _______ _______ _______ _____ _____    ______ ____
ROOT
ATOM     10  C   UNL     1      11.726  23.403   8.644  0.00  0.00    +0.038 A 
ATOM     11  C   UNL     1      12.906  23.561   7.873  0.00  0.00    +0.047 A 
ATOM     12  C   UNL     1      14.198  23.123   8.377  0.00  0.00    +0.035 A 
ATOM     32  C   UNL     1      14.252  22.527   9.670  0.00  0.00    +0.024 A 
ATOM     33  C   UNL     1      13.063  22.360  10.468  0.00  0.00    +0.007 A 
ATOM     34  C   UNL     1      11.786  22.791   9.977  0.00  0.00    -0.029 A 
ATOM     35  C   UNL     1      10.545  22.593  10.878  0.00  0.00    +0.045 C 
ENDROOT
BRANCH  10   9
ATOM      4  C   UNL     1       8.334  26.742   8.022  0.00  0.00    +0.077 A 
ATOM      5  C   UNL     1       9.027  27.685   8.852  0.00  0.00    +0.048 A 
ATOM      6  C   UNL     1      10.250  27.269   9.425  0.00  0.00    +0.116 A 
ATOM      7  N   UNL     1      10.734  26.002   9.180  0.00  0.00    -0.223 NA
ATOM      8  C   UNL     1      10.039  25.116   8.377  0.00  0.00    +0.220 A 
ATOM      9  N   UNL     1      10.511  23.840   8.111  0.00  0.00    -0.283 N 
ATOM     36  H   UNL     1       9.966  23.214   7.519  0.00  0.00    +0.155 HD
ATOM     37  N   UNL     1       8.869  25.489   7.819  0.00  0.00    -0.214 NA
BRANCH   4   3
ATOM      1  C   UNL     1       4.655  27.877   7.334  0.00  0.00    +0.020 A 
ATOM      2  C   UNL     1       5.890  27.615   8.036  0.00  0.00    +0.013 A 
ATOM      3  C   UNL     1       7.032  27.034   7.343  0.00  0.00    +0.019 A 
ATOM     38  C   UNL     1       6.892  26.729   5.927  0.00  0.00    +0.120 A 
ATOM     39  N   UNL     1       5.690  26.991   5.277  0.00  0.00    -0.263 NA
ATOM     40  C   UNL     1       4.583  27.549   5.934  0.00  0.00    +0.111 A 
ENDBRANCH   4   3
ENDBRANCH  10   9
BRANCH  12  13
ATOM     13  N   UNL     1      15.431  23.265   7.643  0.00  0.00    -0.281 N 
ATOM     14  C   UNL     1      16.096  22.302   6.901  0.00  0.00    +0.248 C 
ATOM     30  O   UNL     1      15.840  21.108   6.932  0.00  0.00    -0.270 OA
ATOM     31  H   UNL     1      15.867  24.187   7.674  0.00  0.00    +0.155 HD
BRANCH  14  15
ATOM     15  C   UNL     1      17.216  22.726   6.007  0.00  0.00    +0.037 A 
ATOM     16  C   UNL     1      18.548  22.126   6.121  0.00  0.00    +0.013 A 
ATOM     17  C   UNL     1      19.615  22.566   5.257  0.00  0.00    +0.005 A 
ATOM     18  C   UNL     1      19.353  23.610   4.270  0.00  0.00    -0.033 A 
ATOM     28  C   UNL     1      18.022  24.184   4.174  0.00  0.00    +0.005 A 
ATOM     29  C   UNL     1      16.973  23.757   5.020  0.00  0.00    +0.013 A 
BRANCH  18  19
ATOM     19  C   UNL     1      20.438  24.155   3.321  0.00  0.00    +0.119 C 
BRANCH  19  20
ATOM     20  N   UNL     1      20.118  25.400   2.560  0.00  0.00    -0.302 NA
ATOM     21  C   UNL     1      20.719  25.382   1.152  0.00  0.00    +0.066 C 
ATOM     22  C   UNL     1      20.356  26.682   0.362  0.00  0.00    -0.064 C 
ATOM     23  N   UNL     1      20.843  27.903   1.144  0.00  0.00    +0.379 N 
ATOM     24  C   UNL     1      20.555  29.124   0.377  0.00  0.00    -0.096 C 
ATOM     25  H   UNL     1      21.950  27.820   1.245  0.00  0.00    -0.082 HD
ATOM     26  C   UNL     1      20.253  27.927   2.547  0.00  0.00    -0.064 C 
ATOM     27  C   UNL     1      20.594  26.618   3.312  0.00  0.00    +0.066 C 
ENDBRANCH  19  20
ENDBRANCH  18  19
ENDBRANCH  14  15
ENDBRANCH  12  13
TORSDOF 6
ENDMDL
MODEL 5
REMARK VINA RESULT:      -7.8      8.137     15.880
REMARK  Name = C:\Users\Docking\Desktop\test protocol\1iep_ligandH.pdb
REMARK  8 active torsions:
REMARK  status: ('A' for Active; 'I' for Inactive)
REMARK    1  A    between atoms: _5  and  _11
REMARK    2  A    between atoms: _19  and  _21
REMARK    3  A    between atoms: _22  and  _66
REMARK    4  A    between atoms: _27  and  _30
REMARK    5  A    between atoms: _32  and  _33
REMARK    6  A    between atoms: _38  and  _43
REMARK    7  A    between atoms: _43  and  _46
REMARK    8  A    between atoms: _53  and  _55
REMARK                            x       y       z     vdW  Elec       q    Type
REMARK                         _______ _______ _______ _____ _____    ______ ____
ROOT
ATOM     10  C   UNL     1       9.355  25.304   8.530  0.00  0.00    +0.038 A 
ATOM     11  C   UNL     1       7.982  25.545   8.270  0.00  0.00    +0.047 A 
ATOM     12  C   UNL     1       7.407  26.872   8.427  0.00  0.00    +0.035 A 
ATOM     32  C   UNL     1       8.262  27.932   8.848  0.00  0.00    +0.024 A 
ATOM     33  C   UNL     1       9.660  27.705   9.118  0.00  0.00    +0.007 A 
ATOM     34  C   UNL     1      10.231  26.398   8.967  0.00  0.00    -0.029 A 
ATOM     35  C   UNL     1      11.735  26.211   9.277  0.00  0.00    +0.045 C 
ENDROOT
BRANCH  10   9
ATOM      4  C   UNL     1      10.714  21.036  10.254  0.00  0.00    +0.077 A 
ATOM      5  C   UNL     1      10.431  21.425  11.605  0.00  0.00    +0.048 A 
ATOM      6  C   UNL     1       9.944  22.735  11.815  0.00  0.00    +0.116 A 
ATOM      7  N   UNL     1       9.757  23.583  10.745  0.00  0.00    -0.223 NA
ATOM      8  C   UNL     1      10.042  23.177   9.454  0.00  0.00    +0.220 A 
ATOM      9  N   UNL     1       9.854  24.010   8.363  0.00  0.00    -0.283 N 
ATOM     36  H   UNL     1      10.083  23.675   7.427  0.00  0.00    +0.155 HD
ATOM     37  N   UNL     1      10.509  21.931   9.228  0.00  0.00    -0.214 NA
BRANCH   4   3
ATOM      1  C   UNL     1      12.608  18.144   8.423  0.00  0.00    +0.020 A 
ATOM      2  C   UNL     1      12.138  19.471   8.751  0.00  0.00    +0.013 A 
ATOM      3  C   UNL     1      11.231  19.684   9.871  0.00  0.00    +0.019 A 
ATOM     38  C   UNL     1      10.816  18.525  10.647  0.00  0.00    +0.120 A 
ATOM     39  N   UNL     1      11.284  17.259  10.308  0.00  0.00    -0.263 NA
ATOM     40  C   UNL     1      12.155  17.042   9.230  0.00  0.00    +0.111 A 
ENDBRANCH   4   3
ENDBRANCH  10   9
BRANCH  12  13
ATOM     13  N   UNL     1       6.018  27.174   8.185  0.00  0.00    -0.281 N 
ATOM     14  C   UNL     1       5.429  27.579   6.999  0.00  0.00    +0.248 C 
ATOM     30  O   UNL     1       6.046  27.950   6.012  0.00  0.00    -0.270 OA
ATOM     31  H   UNL     1       5.394  27.078   8.986  0.00  0.00    +0.155 HD
BRANCH  14  15
ATOM     15  C   UNL     1       3.938  27.586   6.899  0.00  0.00    +0.037 A 
ATOM     16  C   UNL     1       3.211  28.778   6.454  0.00  0.00    +0.013 A 
ATOM     17  C   UNL     1       1.772  28.763   6.383  0.00  0.00    +0.005 A 
ATOM     18  C   UNL     1       1.049  27.550   6.757  0.00  0.00    -0.033 A 
ATOM     28  C   UNL     1       1.794  26.380   7.190  0.00  0.00    +0.005 A 
ATOM     29  C   UNL     1       3.206  26.391   7.262  0.00  0.00    +0.013 A 
BRANCH  18  19
ATOM     19  C   UNL     1      -0.488  27.451   6.732  0.00  0.00    +0.119 C 
BRANCH  19  20
ATOM     20  N   UNL     1      -1.201  27.554   8.041  0.00  0.00    -0.302 NA
ATOM     21  C   UNL     1      -0.426  28.401   9.053  0.00  0.00    +0.066 C 
ATOM     22  C   UNL     1      -1.197  28.517  10.408  0.00  0.00    -0.064 C 
ATOM     23  N   UNL     1      -1.459  27.115  10.963  0.00  0.00    +0.379 N 
ATOM     24  C   UNL     1      -2.132  27.222  12.266  0.00  0.00    -0.096 C 
ATOM     25  H   UNL     1      -0.471  26.628  11.132  0.00  0.00    -0.082 HD
ATOM     26  C   UNL     1      -2.227  26.265   9.962  0.00  0.00    -0.064 C 
ATOM     27  C   UNL     1      -1.467  26.181   8.609  0.00  0.00    +0.066 C 
ENDBRANCH  19  20
ENDBRANCH  18  19
ENDBRANCH  14  15
ENDBRANCH  12  13
TORSDOF 6
ENDMDL
