MODEL 1
REMARK VINA RESULT:      -8.5      0.000      0.000
REMARK  Name = C:\Users\Docking\Desktop\test protocol\1iep_ligandH.pdb
REMARK  8 active torsions:
REMARK  status: ('A' for Active; 'I' for Inactive)
REMARK    1  A    between atoms: _5  and  _11
REMARK    2  A    between atoms: _19  and  _21
REMARK    3  A    between atoms: _22  and  _66
REMARK    4  A    between atoms: _27  and  _30
REMARK    5  A    between atoms: _32  and  _33
REMARK    6  A    between atoms: _38  and  _43
REMARK    7  A    between atoms: _43  and  _46
REMARK    8  A    between atoms: _53  and  _55
REMARK                            x       y       z     vdW  Elec       q    Type
REMARK                         _______ _______ _______ _____ _____    ______ ____
ROOT
ATOM     10  C   UNL     1      11.732  25.451   9.429  0.00  0.00    +0.038 A 
ATOM     11  C   UNL     1      12.758  25.467   8.449  0.00  0.00    +0.047 A 
ATOM     12  C   UNL     1      13.817  24.471   8.453  0.00  0.00    +0.035 A 
ATOM     32  C   UNL     1      13.800  23.470   9.467  0.00  0.00    +0.024 A 
ATOM     33  C   UNL     1      12.766  23.439  10.472  0.00  0.00    +0.007 A 
ATOM     34  C   UNL     1      11.720  24.421  10.475  0.00  0.00    -0.029 A 
ATOM     35  C   UNL     1      10.641  24.344  11.580  0.00  0.00    +0.045 C 
ENDROOT
BRANCH  10   9
ATOM      4  C   UNL     1       7.516  27.129   7.866  0.00  0.00    +0.077 A 
ATOM      5  C   UNL     1       7.284  25.965   7.060  0.00  0.00    +0.048 A 
ATOM      6  C   UNL     1       8.278  24.961   7.071  0.00  0.00    +0.116 A 
ATOM      7  N   UNL     1       9.414  25.119   7.834  0.00  0.00    -0.223 NA
ATOM      8  C   UNL     1       9.608  26.255   8.598  0.00  0.00    +0.220 A 
ATOM      9  N   UNL     1      10.739  26.432   9.379  0.00  0.00    -0.283 N 
ATOM     36  H   UNL     1      10.848  27.288   9.922  0.00  0.00    +0.155 HD
ATOM     37  N   UNL     1       8.674  27.230   8.604  0.00  0.00    -0.214 NA
BRANCH   4   3
ATOM      1  C   UNL     1       5.852  30.532   8.843  0.00  0.00    +0.020 A 
ATOM      2  C   UNL     1       6.810  29.452   8.785  0.00  0.00    +0.013 A 
ATOM      3  C   UNL     1       6.558  28.276   7.962  0.00  0.00    +0.019 A 
ATOM     38  C   UNL     1       5.318  28.224   7.203  0.00  0.00    +0.120 A 
ATOM     39  N   UNL     1       4.413  29.278   7.279  0.00  0.00    -0.263 NA
ATOM     40  C   UNL     1       4.644  30.414   8.069  0.00  0.00    +0.111 A 
ENDBRANCH   4   3
ENDBRANCH  10   9
BRANCH  12  13
ATOM     13  N   UNL     1      14.889  24.442   7.488  0.00  0.00    -0.281 N 
ATOM     14  C   UNL     1      14.919  23.786   6.268  0.00  0.00    +0.248 C 
ATOM     30  O   UNL     1      14.106  22.946   5.915  0.00  0.00    -0.270 OA
ATOM     31  H   UNL     1      15.727  24.968   7.735  0.00  0.00    +0.155 HD
BRANCH  14  15
ATOM     15  C   UNL     1      16.021  24.099   5.308  0.00  0.00    +0.037 A 
ATOM     16  C   UNL     1      15.735  24.475   3.920  0.00  0.00    +0.013 A 
ATOM     17  C   UNL     1      16.817  24.755   3.010  0.00  0.00    +0.005 A 
ATOM     18  C   UNL     1      18.195  24.662   3.485  0.00  0.00    -0.033 A 
ATOM     28  C   UNL     1      18.450  24.293   4.867  0.00  0.00    +0.005 A 
ATOM     29  C   UNL     1      17.392  24.016   5.763  0.00  0.00    +0.013 A 
BRANCH  18  19
ATOM     19  C   UNL     1      19.412  24.923   2.578  0.00  0.00    +0.119 C 
BRANCH  19  20
ATOM     20  N   UNL     1      19.562  26.298   2.014  0.00  0.00    -0.302 NA
ATOM     21  C   UNL     1      20.901  26.480   1.293  0.00  0.00    +0.066 C 
ATOM     22  C   UNL     1      21.031  27.917   0.689  0.00  0.00    -0.064 C 
ATOM     23  N   UNL     1      20.871  28.951   1.805  0.00  0.00    +0.379 N 
ATOM     24  C   UNL     1      21.052  30.301   1.251  0.00  0.00    -0.096 C 
ATOM     25  H   UNL     1      21.686  28.778   2.546  0.00  0.00    -0.082 HD
ATOM     26  C   UNL     1      19.544  28.776   2.529  0.00  0.00    -0.064 C 
ATOM     27  C   UNL     1      19.412  27.336   3.099  0.00  0.00    +0.066 C 
ENDBRANCH  19  20
ENDBRANCH  18  19
ENDBRANCH  14  15
ENDBRANCH  12  13
TORSDOF 6
ENDMDL
MODEL 2
REMARK VINA RESULT:      -8.1      1.754      2.464
REMARK  Name = C:\Users\Docking\Desktop\test protocol\1iep_ligandH.pdb
REMARK  8 active torsions:
REMARK  status: ('A' for Active; 'I' for Inactive)
REMARK    1  A    between atoms: _5  and  _11
REMARK    2  A    between atoms: _19  and  _21
REMARK    3  A    between atoms: _22  and  _66
REMARK    4  A    between atoms: _27  and  _30
REMARK    5  A    between atoms: _32  and  _33
REMARK    6  A    between atoms: _38  and  _43
REMARK    7  A    between atoms: _43  and  _46
REMARK    8  A    between atoms: _53  and  _55
REMARK                            x       y       z     vdW  Elec       q    Type
REMARK                         _______ _______ _______ _____ _____    ______ ____
ROOT
ATOM     10  C   UNL     1      11.975  25.317   9.361  0.00  0.00    +0.038 A 
ATOM     11  C   UNL     1      13.009  25.346   8.390  0.00  0.00    +0.047 A 
ATOM     12  C   UNL     1      14.046  24.326   8.365  0.00  0.00    +0.035 A 
ATOM     32  C   UNL     1      13.999  23.290   9.342  0.00  0.00    +0.024 A 
ATOM     33  C   UNL     1      12.956  23.245  10.336  0.00  0.00    +0.007 A 
ATOM     34  C   UNL     1      11.931  24.250  10.368  0.00  0.00    -0.029 A 
ATOM     35  C   UNL     1      10.841  24.156  11.460  0.00  0.00    +0.045 C 
ENDROOT
BRANCH  10   9
ATOM      4  C   UNL     1       7.726  27.067   7.975  0.00  0.00    +0.077 A 
ATOM      5  C   UNL     1       7.426  25.892   7.208  0.00  0.00    +0.048 A 
ATOM      6  C   UNL     1       8.394  24.863   7.191  0.00  0.00    +0.116 A 
ATOM      7  N   UNL     1       9.572  25.009   7.892  0.00  0.00    -0.223 NA
ATOM      8  C   UNL     1       9.831  26.156   8.620  0.00  0.00    +0.220 A 
ATOM      9  N   UNL     1      11.005  26.321   9.339  0.00  0.00    -0.283 N 
ATOM     36  H   UNL     1      11.161  27.185   9.857  0.00  0.00    +0.155 HD
ATOM     37  N   UNL     1       8.922  27.153   8.651  0.00  0.00    -0.214 NA
BRANCH   4   3
ATOM      1  C   UNL     1       6.176  30.510   8.996  0.00  0.00    +0.020 A 
ATOM      2  C   UNL     1       7.102  29.404   8.915  0.00  0.00    +0.013 A 
ATOM      3  C   UNL     1       6.802  28.238   8.094  0.00  0.00    +0.019 A 
ATOM     38  C   UNL     1       5.545  28.223   7.360  0.00  0.00    +0.120 A 
ATOM     39  N   UNL     1       4.672  29.301   7.458  0.00  0.00    -0.263 NA
ATOM     40  C   UNL     1       4.949  30.428   8.247  0.00  0.00    +0.111 A 
ENDBRANCH   4   3
ENDBRANCH  10   9
BRANCH  12  13
ATOM     13  N   UNL     1      15.125  24.309   7.408  0.00  0.00    -0.281 N 
ATOM     14  C   UNL     1      15.124  23.769   6.133  0.00  0.00    +0.248 C 
ATOM     30  O   UNL     1      14.257  23.026   5.698  0.00  0.00    -0.270 OA
ATOM     31  H   UNL     1      15.996  24.748   7.708  0.00  0.00    +0.155 HD
BRANCH  14  15
ATOM     15  C   UNL     1      16.257  24.088   5.212  0.00  0.00    +0.037 A 
ATOM     16  C   UNL     1      16.261  23.626   3.822  0.00  0.00    +0.013 A 
ATOM     17  C   UNL     1      17.374  23.933   2.960  0.00  0.00    +0.005 A 
ATOM     18  C   UNL     1      18.494  24.710   3.486  0.00  0.00    -0.033 A 
ATOM     28  C   UNL     1      18.462  25.161   4.868  0.00  0.00    +0.005 A 
ATOM     29  C   UNL     1      17.373  24.860   5.716  0.00  0.00    +0.013 A 
BRANCH  18  19
ATOM     19  C   UNL     1      19.733  25.067   2.645  0.00  0.00    +0.119 C 
BRANCH  19  20
ATOM     20  N   UNL     1      21.061  24.615   3.157  0.00  0.00    -0.302 NA
ATOM     21  C   UNL     1      22.221  25.245   2.381  0.00  0.00    +0.066 C 
ATOM     22  C   UNL     1      23.603  24.780   2.945  0.00  0.00    -0.064 C 
ATOM     23  N   UNL     1      23.683  23.253   2.895  0.00  0.00    +0.379 N 
ATOM     24  C   UNL     1      25.004  22.815   3.370  0.00  0.00    -0.096 C 
ATOM     25  H   UNL     1      23.589  22.945   1.827  0.00  0.00    -0.082 HD
ATOM     26  C   UNL     1      22.532  22.618   3.662  0.00  0.00    -0.064 C 
ATOM     27  C   UNL     1      21.164  23.111   3.112  0.00  0.00    +0.066 C 
ENDBRANCH  19  20
ENDBRANCH  18  19
ENDBRANCH  14  15
ENDBRANCH  12  13
TORSDOF 6
ENDMDL
MODEL 3
REMARK VINA RESULT:      -8.0      6.148     12.333
REMARK  Name = C:\Users\Docking\Desktop\test protocol\1iep_ligandH.pdb
REMARK  8 active torsions:
REMARK  status: ('A' for Active; 'I' for Inactive)
REMARK    1  A    between atoms: _5  and  _11
REMARK    2  A    between atoms: _19  and  _21
REMARK    3  A    between atoms: _22  and  _66
REMARK    4  A    between atoms: _27  and  _30
REMARK    5  A    between atoms: _32  and  _33
REMARK    6  A    between atoms: _38  and  _43
REMARK    7  A    between atoms: _43  and  _46
REMARK    8  A    between atoms: _53  and  _55
REMARK                            x       y       z     vdW  Elec       q    Type
REMARK                         _______ _______ _______ _____ _____    ______ ____
ROOT
ATOM     10  C   UNL     1      11.683  23.380  10.845  0.00  0.00    +0.038 A 
ATOM     11  C   UNL     1      10.645  24.300  10.551  0.00  0.00    +0.047 A 
ATOM     12  C   UNL     1      10.877  25.444   9.682  0.00  0.00    +0.035 A 
ATOM     32  C   UNL     1      12.178  25.619   9.128  0.00  0.00    +0.024 A 
ATOM     33  C   UNL     1      13.246  24.694   9.418  0.00  0.00    +0.007 A 
ATOM     34  C   UNL     1      13.024  23.565  10.276  0.00  0.00    -0.029 A 
ATOM     35  C   UNL     1      14.207  22.610  10.558  0.00  0.00    +0.045 C 
ENDROOT
BRANCH  10   9
ATOM      4  C   UNL     1       9.691  19.102  11.720  0.00  0.00    +0.077 A 
ATOM      5  C   UNL     1       9.135  19.025  10.400  0.00  0.00    +0.048 A 
ATOM      6  C   UNL     1       9.379  20.110   9.529  0.00  0.00    +0.116 A 
ATOM      7  N   UNL     1      10.125  21.187   9.957  0.00  0.00    -0.223 NA
ATOM      8  C   UNL     1      10.645  21.231  11.237  0.00  0.00    +0.220 A 
ATOM      9  N   UNL     1      11.405  22.300  11.686  0.00  0.00    -0.283 N 
ATOM     36  H   UNL     1      11.765  22.298  12.640  0.00  0.00    +0.155 HD
ATOM     37  N   UNL     1      10.425  20.207  12.089  0.00  0.00    -0.214 NA
BRANCH   4   3
ATOM      1  C   UNL     1       9.971  17.029  15.026  0.00  0.00    +0.020 A 
ATOM      2  C   UNL     1      10.166  18.088  14.062  0.00  0.00    +0.013 A 
ATOM      3  C   UNL     1       9.524  18.033  12.755  0.00  0.00    +0.019 A 
ATOM     38  C   UNL     1       8.683  16.884  12.452  0.00  0.00    +0.120 A 
ATOM     39  N   UNL     1       8.515  15.879  13.399  0.00  0.00    -0.263 NA
ATOM     40  C   UNL     1       9.130  15.920  14.660  0.00  0.00    +0.111 A 
ENDBRANCH   4   3
ENDBRANCH  10   9
BRANCH  12  13
ATOM     13  N   UNL     1       9.863  26.415   9.353  0.00  0.00    -0.281 N 
ATOM     14  C   UNL     1       9.152  26.537   8.171  0.00  0.00    +0.248 C 
ATOM     30  O   UNL     1       9.432  25.957   7.132  0.00  0.00    -0.270 OA
ATOM     31  H   UNL     1       9.644  27.096  10.080  0.00  0.00    +0.155 HD
BRANCH  14  15
ATOM     15  C   UNL     1       7.966  27.445   8.132  0.00  0.00    +0.037 A 
ATOM     16  C   UNL     1       6.742  27.067   7.421  0.00  0.00    +0.013 A 
ATOM     17  C   UNL     1       5.618  27.970   7.385  0.00  0.00    +0.005 A 
ATOM     18  C   UNL     1       5.713  29.259   8.064  0.00  0.00    -0.033 A 
ATOM     28  C   UNL     1       6.937  29.607   8.767  0.00  0.00    +0.005 A 
ATOM     29  C   UNL     1       8.041  28.726   8.803  0.00  0.00    +0.013 A 
BRANCH  18  19
ATOM     19  C   UNL     1       4.571  30.293   8.060  0.00  0.00    +0.119 C 
BRANCH  19  20
ATOM     20  N   UNL     1       3.240  29.840   7.557  0.00  0.00    -0.302 NA
ATOM     21  C   UNL     1       2.471  30.970   6.869  0.00  0.00    +0.066 C 
ATOM     22  C   UNL     1       1.090  30.473   6.329  0.00  0.00    -0.064 C 
ATOM     23  N   UNL     1       0.275  29.888   7.484  0.00  0.00    +0.379 N 
ATOM     24  C   UNL     1      -1.046  29.472   6.991  0.00  0.00    -0.096 C 
ATOM     25  H   UNL     1       0.117  30.700   8.231  0.00  0.00    -0.082 HD
ATOM     26  C   UNL     1       1.034  28.765   8.176  0.00  0.00    -0.064 C 
ATOM     27  C   UNL     1       2.417  29.262   8.682  0.00  0.00    +0.066 C 
ENDBRANCH  19  20
ENDBRANCH  18  19
ENDBRANCH  14  15
ENDBRANCH  12  13
TORSDOF 6
ENDMDL
MODEL 4
REMARK VINA RESULT:      -7.7      2.374     12.121
REMARK  Name = C:\Users\Docking\Desktop\test protocol\1iep_ligandH.pdb
REMARK  8 active torsions:
REMARK  status: ('A' for Active; 'I' for Inactive)
REMARK    1  A    between atoms: _5  and  _11
REMARK    2  A    between atoms: _19  and  _21
REMARK    3  A    between atoms: _22  and  _66
REMARK    4  A    between atoms: _27  and  _30
REMARK    5  A    between atoms: _32  and  _33
REMARK    6  A    between atoms: _38  and  _43
REMARK    7  A    between atoms: _43  and  _46
REMARK    8  A    between atoms: _53  and  _55
REMARK                            x       y       z     vdW  Elec       q    Type
REMARK                         _______ _______ _______ _____ _____    ______ ____
ROOT
ATOM     10  C   UNL     1      14.439  22.971   8.692  0.00  0.00    +0.038 A 
ATOM     11  C   UNL     1      13.253  23.698   8.415  0.00  0.00    +0.047 A 
ATOM     12  C   UNL     1      11.962  23.249   8.913  0.00  0.00    +0.035 A 
ATOM     32  C   UNL     1      11.915  22.057   9.692  0.00  0.00    +0.024 A 
ATOM     33  C   UNL     1      13.111  21.305   9.983  0.00  0.00    +0.007 A 
ATOM     34  C   UNL     1      14.387  21.741   9.492  0.00  0.00    -0.029 A 
ATOM     35  C   UNL     1      15.635  20.892   9.829  0.00  0.00    +0.045 C 
ENDROOT
BRANCH  10   9
ATOM      4  C   UNL     1      17.228  24.472   5.086  0.00  0.00    +0.077 A 
ATOM      5  C   UNL     1      16.190  24.264   4.118  0.00  0.00    +0.048 A 
ATOM      6  C   UNL     1      14.956  23.763   4.588  0.00  0.00    +0.116 A 
ATOM      7  N   UNL     1      14.783  23.493   5.929  0.00  0.00    -0.223 NA
ATOM      8  C   UNL     1      15.806  23.703   6.836  0.00  0.00    +0.220 A 
ATOM      9  N   UNL     1      15.652  23.447   8.189  0.00  0.00    -0.283 N 
ATOM     36  H   UNL     1      16.432  23.608   8.825  0.00  0.00    +0.155 HD
ATOM     37  N   UNL     1      16.995  24.180   6.412  0.00  0.00    -0.214 NA
BRANCH   4   3
ATOM      1  C   UNL     1      20.204  26.879   4.279  0.00  0.00    +0.020 A 
ATOM      2  C   UNL     1      18.874  26.422   4.610  0.00  0.00    +0.013 A 
ATOM      3  C   UNL     1      18.587  24.999   4.745  0.00  0.00    +0.019 A 
ATOM     38  C   UNL     1      19.678  24.058   4.539  0.00  0.00    +0.120 A 
ATOM     39  N   UNL     1      20.948  24.527   4.220  0.00  0.00    -0.263 NA
ATOM     40  C   UNL     1      21.235  25.894   4.086  0.00  0.00    +0.111 A 
ENDBRANCH   4   3
ENDBRANCH  10   9
BRANCH  12  13
ATOM     13  N   UNL     1      10.723  23.941   8.657  0.00  0.00    -0.281 N 
ATOM     14  C   UNL     1      10.203  25.034   9.331  0.00  0.00    +0.248 C 
ATOM     30  O   UNL     1      10.626  25.453  10.398  0.00  0.00    -0.270 OA
ATOM     31  H   UNL     1      10.161  23.582   7.885  0.00  0.00    +0.155 HD
BRANCH  14  15
ATOM     15  C   UNL     1       9.037  25.759   8.741  0.00  0.00    +0.037 A 
ATOM     16  C   UNL     1       7.987  25.042   8.012  0.00  0.00    +0.013 A 
ATOM     17  C   UNL     1       6.881  25.767   7.438  0.00  0.00    +0.005 A 
ATOM     18  C   UNL     1       6.819  27.218   7.592  0.00  0.00    -0.033 A 
ATOM     28  C   UNL     1       7.872  27.904   8.324  0.00  0.00    +0.005 A 
ATOM     29  C   UNL     1       8.958  27.196   8.887  0.00  0.00    +0.013 A 
BRANCH  18  19
ATOM     19  C   UNL     1       5.687  28.075   6.994  0.00  0.00    +0.119 C 
BRANCH  19  20
ATOM     20  N   UNL     1       4.310  27.857   7.528  0.00  0.00    -0.302 NA
ATOM     21  C   UNL     1       3.430  27.077   6.547  0.00  0.00    +0.066 C 
ATOM     22  C   UNL     1       2.000  26.839   7.131  0.00  0.00    -0.064 C 
ATOM     23  N   UNL     1       1.362  28.185   7.478  0.00  0.00    +0.379 N 
ATOM     24  C   UNL     1      -0.005  27.968   7.973  0.00  0.00    -0.096 C 
ATOM     25  H   UNL     1       1.291  28.778   6.536  0.00  0.00    -0.082 HD
ATOM     26  C   UNL     1       2.232  28.968   8.451  0.00  0.00    -0.064 C 
ATOM     27  C   UNL     1       3.660  29.174   7.874  0.00  0.00    +0.066 C 
ENDBRANCH  19  20
ENDBRANCH  18  19
ENDBRANCH  14  15
ENDBRANCH  12  13
TORSDOF 6
ENDMDL
MODEL 5
REMARK VINA RESULT:      -7.7      2.154     12.270
REMARK  Name = C:\Users\Docking\Desktop\test protocol\1iep_ligandH.pdb
REMARK  8 active torsions:
REMARK  status: ('A' for Active; 'I' for Inactive)
REMARK    1  A    between atoms: _5  and  _11
REMARK    2  A    between atoms: _19  and  _21
REMARK    3  A    between atoms: _22  and  _66
REMARK    4  A    between atoms: _27  and  _30
REMARK    5  A    between atoms: _32  and  _33
REMARK    6  A    between atoms: _38  and  _43
REMARK    7  A    between atoms: _43  and  _46
REMARK    8  A    between atoms: _53  and  _55
REMARK                            x       y       z     vdW  Elec       q    Type
REMARK                         _______ _______ _______ _____ _____    ______ ____
ROOT
ATOM     10  C   UNL     1      14.003  24.132   8.534  0.00  0.00    +0.038 A 
ATOM     11  C   UNL     1      13.098  25.224   8.506  0.00  0.00    +0.047 A 
ATOM     12  C   UNL     1      11.722  25.073   8.955  0.00  0.00    +0.035 A 
ATOM     32  C   UNL     1      11.303  23.795   9.429  0.00  0.00    +0.024 A 
ATOM     33  C   UNL     1      12.209  22.674   9.463  0.00  0.00    +0.007 A 
ATOM     34  C   UNL     1      13.566  22.817   9.019  0.00  0.00    -0.029 A 
ATOM     35  C   UNL     1      14.492  21.579   9.071  0.00  0.00    +0.045 C 
ENDROOT
BRANCH  10   9
ATOM      4  C   UNL     1      17.298  24.417   5.056  0.00  0.00    +0.077 A 
ATOM      5  C   UNL     1      16.335  24.112   4.037  0.00  0.00    +0.048 A 
ATOM      6  C   UNL     1      15.004  23.882   4.451  0.00  0.00    +0.116 A 
ATOM      7  N   UNL     1      14.672  23.954   5.786  0.00  0.00    -0.223 NA
ATOM      8  C   UNL     1      15.625  24.248   6.743  0.00  0.00    +0.220 A 
ATOM      9  N   UNL     1      15.312  24.333   8.091  0.00  0.00    -0.283 N 
ATOM     36  H   UNL     1      16.046  24.546   8.767  0.00  0.00    +0.155 HD
ATOM     37  N   UNL     1      16.904  24.471   6.374  0.00  0.00    -0.214 NA
BRANCH   4   3
ATOM      1  C   UNL     1      21.127  23.948   4.406  0.00  0.00    +0.020 A 
ATOM      2  C   UNL     1      19.743  23.632   4.678  0.00  0.00    +0.013 A 
ATOM      3  C   UNL     1      18.744  24.688   4.776  0.00  0.00    +0.019 A 
ATOM     38  C   UNL     1      19.180  26.064   4.591  0.00  0.00    +0.120 A 
ATOM     39  N   UNL     1      20.519  26.338   4.332  0.00  0.00    -0.263 NA
ATOM     40  C   UNL     1      21.490  25.330   4.237  0.00  0.00    +0.111 A 
ENDBRANCH   4   3
ENDBRANCH  10   9
BRANCH  12  13
ATOM     13  N   UNL     1      10.756  26.143   8.943  0.00  0.00    -0.281 N 
ATOM     14  C   UNL     1      10.093  26.679   7.851  0.00  0.00    +0.248 C 
ATOM     30  O   UNL     1      10.391  26.461   6.686  0.00  0.00    -0.270 OA
ATOM     31  H   UNL     1      10.534  26.555   9.849  0.00  0.00    +0.155 HD
BRANCH  14  15
ATOM     15  C   UNL     1       8.942  27.602   8.088  0.00  0.00    +0.037 A 
ATOM     16  C   UNL     1       9.125  28.887   8.769  0.00  0.00    +0.013 A 
ATOM     17  C   UNL     1       7.994  29.751   8.999  0.00  0.00    +0.005 A 
ATOM     18  C   UNL     1       6.670  29.333   8.547  0.00  0.00    -0.033 A 
ATOM     28  C   UNL     1       6.517  28.056   7.869  0.00  0.00    +0.005 A 
ATOM     29  C   UNL     1       7.623  27.206   7.642  0.00  0.00    +0.013 A 
BRANCH  18  19
ATOM     19  C   UNL     1       5.404  30.181   8.769  0.00  0.00    +0.119 C 
BRANCH  19  20
ATOM     20  N   UNL     1       4.306  30.048   7.765  0.00  0.00    -0.302 NA
ATOM     21  C   UNL     1       3.809  31.411   7.273  0.00  0.00    +0.066 C 
ATOM     22  C   UNL     1       2.677  31.253   6.207  0.00  0.00    -0.064 C 
ATOM     23  N   UNL     1       1.527  30.440   6.805  0.00  0.00    +0.379 N 
ATOM     24  C   UNL     1       0.436  30.339   5.824  0.00  0.00    -0.096 C 
ATOM     25  H   UNL     1       1.139  31.002   7.686  0.00  0.00    -0.082 HD
ATOM     26  C   UNL     1       2.013  29.085   7.298  0.00  0.00    -0.064 C 
ATOM     27  C   UNL     1       3.158  29.253   8.336  0.00  0.00    +0.066 C 
ENDBRANCH  19  20
ENDBRANCH  18  19
ENDBRANCH  14  15
ENDBRANCH  12  13
TORSDOF 6
ENDMDL
