MODEL 1
REMARK VINA RESULT:     -10.1      0.000      0.000
REMARK  Name = C:\Users\Docking\Desktop\test protocol\1iep_ligandH.pdb
REMARK  8 active torsions:
REMARK  status: ('A' for Active; 'I' for Inactive)
REMARK    1  A    between atoms: _5  and  _11
REMARK    2  A    between atoms: _19  and  _21
REMARK    3  A    between atoms: _22  and  _66
REMARK    4  A    between atoms: _27  and  _30
REMARK    5  A    between atoms: _32  and  _33
REMARK    6  A    between atoms: _38  and  _43
REMARK    7  A    between atoms: _43  and  _46
REMARK    8  A    between atoms: _53  and  _55
REMARK                            x       y       z     vdW  Elec       q    Type
REMARK                         _______ _______ _______ _____ _____    ______ ____
ROOT
ATOM     10  C   UNL     1     -13.414 -22.092  21.574  0.00  0.00    +0.038 A 
ATOM     11  C   UNL     1     -13.619 -21.131  20.551  0.00  0.00    +0.047 A 
ATOM     12  C   UNL     1     -14.858 -20.374  20.468  0.00  0.00    +0.035 A 
ATOM     32  C   UNL     1     -15.867 -20.618  21.444  0.00  0.00    +0.024 A 
ATOM     33  C   UNL     1     -15.676 -21.593  22.490  0.00  0.00    +0.007 A 
ATOM     34  C   UNL     1     -14.457 -22.345  22.576  0.00  0.00    -0.029 A 
ATOM     35  C   UNL     1     -14.310 -23.381  23.714  0.00  0.00    +0.045 C 
ENDROOT
BRANCH  10   9
ATOM      4  C   UNL     1     -10.554 -25.672  20.143  0.00  0.00    +0.077 A 
ATOM      5  C   UNL     1     -11.563 -26.210  19.277  0.00  0.00    +0.048 A 
ATOM      6  C   UNL     1     -12.807 -25.541  19.234  0.00  0.00    +0.116 A 
ATOM      7  N   UNL     1     -13.015 -24.417  20.004  0.00  0.00    -0.223 NA
ATOM      8  C   UNL     1     -12.021 -23.925  20.830  0.00  0.00    +0.220 A 
ATOM      9  N   UNL     1     -12.206 -22.791  21.607  0.00  0.00    -0.283 N 
ATOM     36  H   UNL     1     -11.450 -22.464  22.208  0.00  0.00    +0.155 HD
ATOM     37  N   UNL     1     -10.825 -24.547  20.890  0.00  0.00    -0.214 NA
BRANCH   4   3
ATOM      1  C   UNL     1      -6.943 -26.447  21.432  0.00  0.00    +0.020 A 
ATOM      2  C   UNL     1      -8.251 -25.841  21.328  0.00  0.00    +0.013 A 
ATOM      3  C   UNL     1      -9.188 -26.265  20.295  0.00  0.00    +0.019 A 
ATOM     38  C   UNL     1      -8.768 -27.313  19.377  0.00  0.00    +0.120 A 
ATOM     39  N   UNL     1      -7.502 -27.877  19.500  0.00  0.00    -0.263 NA
ATOM     40  C   UNL     1      -6.591 -27.476  20.489  0.00  0.00    +0.111 A 
ENDBRANCH   4   3
ENDBRANCH  10   9
BRANCH  12  13
ATOM     13  N   UNL     1     -15.126 -19.391  19.447  0.00  0.00    -0.281 N 
ATOM     14  C   UNL     1     -15.859 -19.550  18.283  0.00  0.00    +0.248 C 
ATOM     30  O   UNL     1     -16.220 -20.628  17.835  0.00  0.00    -0.270 OA
ATOM     31  H   UNL     1     -14.725 -18.465  19.602  0.00  0.00    +0.155 HD
BRANCH  14  15
ATOM     15  C   UNL     1     -16.234 -18.337  17.494  0.00  0.00    +0.037 A 
ATOM     16  C   UNL     1     -17.329 -18.371  16.521  0.00  0.00    +0.013 A 
ATOM     17  C   UNL     1     -17.658 -17.192  15.761  0.00  0.00    +0.005 A 
ATOM     18  C   UNL     1     -16.892 -15.966  15.972  0.00  0.00    -0.033 A 
ATOM     28  C   UNL     1     -15.814 -15.958  16.948  0.00  0.00    +0.005 A 
ATOM     29  C   UNL     1     -15.488 -17.113  17.694  0.00  0.00    +0.013 A 
BRANCH  18  19
ATOM     19  C   UNL     1     -17.160 -14.666  15.191  0.00  0.00    +0.119 C 
BRANCH  19  20
ATOM     20  N   UNL     1     -16.062 -14.155  14.317  0.00  0.00    -0.302 NA
ATOM     21  C   UNL     1     -15.905 -12.636  14.421  0.00  0.00    +0.066 C 
ATOM     22  C   UNL     1     -14.738 -12.120  13.518  0.00  0.00    -0.064 C 
ATOM     23  N   UNL     1     -14.994 -12.540  12.069  0.00  0.00    +0.379 N 
ATOM     24  C   UNL     1     -13.928 -12.008  11.208  0.00  0.00    -0.096 C 
ATOM     25  H   UNL     1     -15.954 -12.074  11.747  0.00  0.00    -0.082 HD
ATOM     26  C   UNL     1     -15.154 -14.050  11.957  0.00  0.00    -0.064 C 
ATOM     27  C   UNL     1     -16.297 -14.555  12.881  0.00  0.00    +0.066 C 
ENDBRANCH  19  20
ENDBRANCH  18  19
ENDBRANCH  14  15
ENDBRANCH  12  13
TORSDOF 6
ENDMDL
MODEL 2
REMARK VINA RESULT:      -9.9      2.281     13.077
REMARK  Name = C:\Users\Docking\Desktop\test protocol\1iep_ligandH.pdb
REMARK  8 active torsions:
REMARK  status: ('A' for Active; 'I' for Inactive)
REMARK    1  A    between atoms: _5  and  _11
REMARK    2  A    between atoms: _19  and  _21
REMARK    3  A    between atoms: _22  and  _66
REMARK    4  A    between atoms: _27  and  _30
REMARK    5  A    between atoms: _32  and  _33
REMARK    6  A    between atoms: _38  and  _43
REMARK    7  A    between atoms: _43  and  _46
REMARK    8  A    between atoms: _53  and  _55
REMARK                            x       y       z     vdW  Elec       q    Type
REMARK                         _______ _______ _______ _____ _____    ______ ____
ROOT
ATOM     10  C   UNL     1     -15.020 -20.820  20.136  0.00  0.00    +0.038 A 
ATOM     11  C   UNL     1     -13.737 -21.422  20.139  0.00  0.00    +0.047 A 
ATOM     12  C   UNL     1     -13.537 -22.764  20.663  0.00  0.00    +0.035 A 
ATOM     32  C   UNL     1     -14.668 -23.465  21.175  0.00  0.00    +0.024 A 
ATOM     33  C   UNL     1     -15.979 -22.867  21.181  0.00  0.00    +0.007 A 
ATOM     34  C   UNL     1     -16.182 -21.543  20.667  0.00  0.00    -0.029 A 
ATOM     35  C   UNL     1     -17.610 -20.949  20.705  0.00  0.00    +0.045 C 
ENDROOT
BRANCH  10   9
ATOM      4  C   UNL     1     -16.250 -17.763  16.646  0.00  0.00    +0.077 A 
ATOM      5  C   UNL     1     -16.631 -18.829  15.765  0.00  0.00    +0.048 A 
ATOM      6  C   UNL     1     -16.489 -20.150  16.246  0.00  0.00    +0.116 A 
ATOM      7  N   UNL     1     -16.001 -20.376  17.515  0.00  0.00    -0.223 NA
ATOM      8  C   UNL     1     -15.641 -19.325  18.338  0.00  0.00    +0.220 A 
ATOM      9  N   UNL     1     -15.155 -19.529  19.620  0.00  0.00    -0.283 N 
ATOM     36  H   UNL     1     -14.894 -18.727  20.194  0.00  0.00    +0.155 HD
ATOM     37  N   UNL     1     -15.766 -18.054  17.901  0.00  0.00    -0.214 NA
BRANCH   4   3
ATOM      1  C   UNL     1     -16.374 -13.860  16.868  0.00  0.00    +0.020 A 
ATOM      2  C   UNL     1     -16.278 -15.244  17.271  0.00  0.00    +0.013 A 
ATOM      3  C   UNL     1     -16.345 -16.314  16.283  0.00  0.00    +0.019 A 
ATOM     38  C   UNL     1     -16.512 -15.946  14.885  0.00  0.00    +0.120 A 
ATOM     39  N   UNL     1     -16.604 -14.605  14.527  0.00  0.00    -0.263 NA
ATOM     40  C   UNL     1     -16.542 -13.567  15.469  0.00  0.00    +0.111 A 
ENDBRANCH   4   3
ENDBRANCH  10   9
BRANCH  12  13
ATOM     13  N   UNL     1     -12.255 -23.425  20.699  0.00  0.00    -0.281 N 
ATOM     14  C   UNL     1     -11.545 -23.846  21.812  0.00  0.00    +0.248 C 
ATOM     30  O   UNL     1     -11.808 -23.524  22.962  0.00  0.00    -0.270 OA
ATOM     31  H   UNL     1     -11.819 -23.604  19.795  0.00  0.00    +0.155 HD
BRANCH  14  15
ATOM     15  C   UNL     1     -10.364 -24.741  21.619  0.00  0.00    +0.037 A 
ATOM     16  C   UNL     1      -9.830 -25.543  22.722  0.00  0.00    +0.013 A 
ATOM     17  C   UNL     1      -8.679 -26.385  22.513  0.00  0.00    +0.005 A 
ATOM     18  C   UNL     1      -8.056 -26.431  21.193  0.00  0.00    -0.033 A 
ATOM     28  C   UNL     1      -8.609 -25.629  20.114  0.00  0.00    +0.005 A 
ATOM     29  C   UNL     1      -9.737 -24.801  20.316  0.00  0.00    +0.013 A 
BRANCH  18  19
ATOM     19  C   UNL     1      -6.812 -27.285  20.884  0.00  0.00    +0.119 C 
BRANCH  19  20
ATOM     20  N   UNL     1      -7.030 -28.738  20.614  0.00  0.00    -0.302 NA
ATOM     21  C   UNL     1      -6.309 -29.626  21.632  0.00  0.00    +0.066 C 
ATOM     22  C   UNL     1      -6.566 -31.142  21.348  0.00  0.00    -0.064 C 
ATOM     23  N   UNL     1      -6.116 -31.474  19.924  0.00  0.00    +0.379 N 
ATOM     24  C   UNL     1      -6.303 -32.911  19.674  0.00  0.00    -0.096 C 
ATOM     25  H   UNL     1      -5.025 -31.258  19.856  0.00  0.00    -0.082 HD
ATOM     26  C   UNL     1      -6.826 -30.594  18.906  0.00  0.00    -0.064 C 
ATOM     27  C   UNL     1      -6.588 -29.089  19.215  0.00  0.00    +0.066 C 
ENDBRANCH  19  20
ENDBRANCH  18  19
ENDBRANCH  14  15
ENDBRANCH  12  13
TORSDOF 6
ENDMDL
MODEL 3
REMARK VINA RESULT:      -9.7      2.338     12.300
REMARK  Name = C:\Users\Docking\Desktop\test protocol\1iep_ligandH.pdb
REMARK  8 active torsions:
REMARK  status: ('A' for Active; 'I' for Inactive)
REMARK    1  A    between atoms: _5  and  _11
REMARK    2  A    between atoms: _19  and  _21
REMARK    3  A    between atoms: _22  and  _66
REMARK    4  A    between atoms: _27  and  _30
REMARK    5  A    between atoms: _32  and  _33
REMARK    6  A    between atoms: _38  and  _43
REMARK    7  A    between atoms: _43  and  _46
REMARK    8  A    between atoms: _53  and  _55
REMARK                            x       y       z     vdW  Elec       q    Type
REMARK                         _______ _______ _______ _____ _____    ______ ____
ROOT
ATOM     10  C   UNL     1     -15.199 -20.865  19.923  0.00  0.00    +0.038 A 
ATOM     11  C   UNL     1     -14.002 -21.604  19.744  0.00  0.00    +0.047 A 
ATOM     12  C   UNL     1     -13.892 -22.980  20.204  0.00  0.00    +0.035 A 
ATOM     32  C   UNL     1     -15.022 -23.573  20.839  0.00  0.00    +0.024 A 
ATOM     33  C   UNL     1     -16.246 -22.835  21.031  0.00  0.00    +0.007 A 
ATOM     34  C   UNL     1     -16.359 -21.477  20.582  0.00  0.00    -0.029 A 
ATOM     35  C   UNL     1     -17.694 -20.732  20.819  0.00  0.00    +0.045 C 
ENDROOT
BRANCH  10   9
ATOM      4  C   UNL     1     -16.261 -17.587  16.582  0.00  0.00    +0.077 A 
ATOM      5  C   UNL     1     -16.730 -18.586  15.666  0.00  0.00    +0.048 A 
ATOM      6  C   UNL     1     -16.675 -19.933  16.091  0.00  0.00    +0.116 A 
ATOM      7  N   UNL     1     -16.185 -20.245  17.340  0.00  0.00    -0.223 NA
ATOM      8  C   UNL     1     -15.739 -19.257  18.199  0.00  0.00    +0.220 A 
ATOM      9  N   UNL     1     -15.249 -19.547  19.463  0.00  0.00    -0.283 N 
ATOM     36  H   UNL     1     -14.923 -18.790  20.063  0.00  0.00    +0.155 HD
ATOM     37  N   UNL     1     -15.780 -17.964  17.816  0.00  0.00    -0.214 NA
BRANCH   4   3
ATOM      1  C   UNL     1     -16.259 -13.695  16.974  0.00  0.00    +0.020 A 
ATOM      2  C   UNL     1     -16.262 -15.098  17.319  0.00  0.00    +0.013 A 
ATOM      3  C   UNL     1     -16.259 -16.120  16.280  0.00  0.00    +0.019 A 
ATOM     38  C   UNL     1     -16.252 -15.687  14.891  0.00  0.00    +0.120 A 
ATOM     39  N   UNL     1     -16.251 -14.328  14.589  0.00  0.00    -0.263 NA
ATOM     40  C   UNL     1     -16.256 -13.335  15.580  0.00  0.00    +0.111 A 
ENDBRANCH   4   3
ENDBRANCH  10   9
BRANCH  12  13
ATOM     13  N   UNL     1     -12.700 -23.778  20.057  0.00  0.00    -0.281 N 
ATOM     14  C   UNL     1     -11.673 -23.951  20.970  0.00  0.00    +0.248 C 
ATOM     30  O   UNL     1     -11.519 -23.271  21.975  0.00  0.00    -0.270 OA
ATOM     31  H   UNL     1     -12.601 -24.276  19.172  0.00  0.00    +0.155 HD
BRANCH  14  15
ATOM     15  C   UNL     1     -10.661 -25.024  20.725  0.00  0.00    +0.037 A 
ATOM     16  C   UNL     1      -9.230 -24.779  20.924  0.00  0.00    +0.013 A 
ATOM     17  C   UNL     1      -8.275 -25.826  20.664  0.00  0.00    +0.005 A 
ATOM     18  C   UNL     1      -8.748 -27.129  20.203  0.00  0.00    -0.033 A 
ATOM     28  C   UNL     1     -10.173 -27.346  20.019  0.00  0.00    +0.005 A 
ATOM     29  C   UNL     1     -11.113 -26.322  20.272  0.00  0.00    +0.013 A 
BRANCH  18  19
ATOM     19  C   UNL     1      -7.798 -28.298  19.881  0.00  0.00    +0.119 C 
BRANCH  19  20
ATOM     20  N   UNL     1      -7.750 -28.770  18.465  0.00  0.00    -0.302 NA
ATOM     21  C   UNL     1      -6.493 -29.595  18.177  0.00  0.00    +0.066 C 
ATOM     22  C   UNL     1      -6.471 -30.100  16.697  0.00  0.00    -0.064 C 
ATOM     23  N   UNL     1      -6.562 -28.902  15.751  0.00  0.00    +0.379 N 
ATOM     24  C   UNL     1      -6.483 -29.369  14.359  0.00  0.00    -0.096 C 
ATOM     25  H   UNL     1      -5.675 -28.253  15.941  0.00  0.00    -0.082 HD
ATOM     26  C   UNL     1      -7.808 -28.075  16.033  0.00  0.00    -0.064 C 
ATOM     27  C   UNL     1      -7.835 -27.603  17.513  0.00  0.00    +0.066 C 
ENDBRANCH  19  20
ENDBRANCH  18  19
ENDBRANCH  14  15
ENDBRANCH  12  13
TORSDOF 6
ENDMDL
MODEL 4
REMARK VINA RESULT:      -9.6      1.741      2.726
REMARK  Name = C:\Users\Docking\Desktop\test protocol\1iep_ligandH.pdb
REMARK  8 active torsions:
REMARK  status: ('A' for Active; 'I' for Inactive)
REMARK    1  A    between atoms: _5  and  _11
REMARK    2  A    between atoms: _19  and  _21
REMARK    3  A    between atoms: _22  and  _66
REMARK    4  A    between atoms: _27  and  _30
REMARK    5  A    between atoms: _32  and  _33
REMARK    6  A    between atoms: _38  and  _43
REMARK    7  A    between atoms: _43  and  _46
REMARK    8  A    between atoms: _53  and  _55
REMARK                            x       y       z     vdW  Elec       q    Type
REMARK                         _______ _______ _______ _____ _____    ______ ____
ROOT
ATOM     10  C   UNL     1     -13.474 -22.064  21.495  0.00  0.00    +0.038 A 
ATOM     11  C   UNL     1     -13.648 -21.077  20.492  0.00  0.00    +0.047 A 
ATOM     12  C   UNL     1     -14.892 -20.331  20.378  0.00  0.00    +0.035 A 
ATOM     32  C   UNL     1     -15.937 -20.615  21.305  0.00  0.00    +0.024 A 
ATOM     33  C   UNL     1     -15.777 -21.616  22.330  0.00  0.00    +0.007 A 
ATOM     34  C   UNL     1     -14.553 -22.356  22.446  0.00  0.00    -0.029 A 
ATOM     35  C   UNL     1     -14.439 -23.422  23.560  0.00  0.00    +0.045 C 
ENDROOT
BRANCH  10   9
ATOM      4  C   UNL     1     -10.555 -25.636  20.170  0.00  0.00    +0.077 A 
ATOM      5  C   UNL     1     -11.544 -26.200  19.297  0.00  0.00    +0.048 A 
ATOM      6  C   UNL     1     -12.794 -25.544  19.223  0.00  0.00    +0.116 A 
ATOM      7  N   UNL     1     -13.025 -24.410  19.971  0.00  0.00    -0.223 NA
ATOM      8  C   UNL     1     -12.050 -23.893  20.804  0.00  0.00    +0.220 A 
ATOM      9  N   UNL     1     -12.258 -22.749  21.559  0.00  0.00    -0.283 N 
ATOM     36  H   UNL     1     -11.516 -22.404  22.167  0.00  0.00    +0.155 HD
ATOM     37  N   UNL     1     -10.849 -24.502  20.893  0.00  0.00    -0.214 NA
BRANCH   4   3
ATOM      1  C   UNL     1      -6.941 -26.323  21.500  0.00  0.00    +0.020 A 
ATOM      2  C   UNL     1      -8.252 -25.731  21.364  0.00  0.00    +0.013 A 
ATOM      3  C   UNL     1      -9.185 -26.212  20.353  0.00  0.00    +0.019 A 
ATOM     38  C   UNL     1      -8.758 -27.303  19.489  0.00  0.00    +0.120 A 
ATOM     39  N   UNL     1      -7.488 -27.852  19.643  0.00  0.00    -0.263 NA
ATOM     40  C   UNL     1      -6.581 -27.396  20.611  0.00  0.00    +0.111 A 
ENDBRANCH   4   3
ENDBRANCH  10   9
BRANCH  12  13
ATOM     13  N   UNL     1     -15.130 -19.323  19.375  0.00  0.00    -0.281 N 
ATOM     14  C   UNL     1     -15.928 -19.416  18.246  0.00  0.00    +0.248 C 
ATOM     30  O   UNL     1     -16.393 -20.460  17.813  0.00  0.00    -0.270 OA
ATOM     31  H   UNL     1     -14.652 -18.433  19.513  0.00  0.00    +0.155 HD
BRANCH  14  15
ATOM     15  C   UNL     1     -16.243 -18.172  17.480  0.00  0.00    +0.037 A 
ATOM     16  C   UNL     1     -17.351 -18.130  16.522  0.00  0.00    +0.013 A 
ATOM     17  C   UNL     1     -17.623 -16.922  15.784  0.00  0.00    +0.005 A 
ATOM     18  C   UNL     1     -16.785 -15.745  16.003  0.00  0.00    -0.033 A 
ATOM     28  C   UNL     1     -15.696 -15.813  16.963  0.00  0.00    +0.005 A 
ATOM     29  C   UNL     1     -15.426 -16.995  17.688  0.00  0.00    +0.013 A 
BRANCH  18  19
ATOM     19  C   UNL     1     -16.990 -14.421  15.244  0.00  0.00    +0.119 C 
BRANCH  19  20
ATOM     20  N   UNL     1     -18.108 -13.540  15.694  0.00  0.00    -0.302 NA
ATOM     21  C   UNL     1     -18.464 -13.770  17.166  0.00  0.00    +0.066 C 
ATOM     22  C   UNL     1     -19.620 -12.824  17.627  0.00  0.00    -0.064 C 
ATOM     23  N   UNL     1     -20.842 -13.046  16.734  0.00  0.00    +0.379 N 
ATOM     24  C   UNL     1     -21.951 -12.200  17.200  0.00  0.00    -0.096 C 
ATOM     25  H   UNL     1     -21.156 -14.109  16.848  0.00  0.00    -0.082 HD
ATOM     26  C   UNL     1     -20.497 -12.822  15.268  0.00  0.00    -0.064 C 
ATOM     27  C   UNL     1     -19.327 -13.745  14.828  0.00  0.00    +0.066 C 
ENDBRANCH  19  20
ENDBRANCH  18  19
ENDBRANCH  14  15
ENDBRANCH  12  13
TORSDOF 6
ENDMDL
MODEL 5
REMARK VINA RESULT:      -9.5      2.023     12.819
REMARK  Name = C:\Users\Docking\Desktop\test protocol\1iep_ligandH.pdb
REMARK  8 active torsions:
REMARK  status: ('A' for Active; 'I' for Inactive)
REMARK    1  A    between atoms: _5  and  _11
REMARK    2  A    between atoms: _19  and  _21
REMARK    3  A    between atoms: _22  and  _66
REMARK    4  A    between atoms: _27  and  _30
REMARK    5  A    between atoms: _32  and  _33
REMARK    6  A    between atoms: _38  and  _43
REMARK    7  A    between atoms: _43  and  _46
REMARK    8  A    between atoms: _53  and  _55
REMARK                            x       y       z     vdW  Elec       q    Type
REMARK                         _______ _______ _______ _____ _____    ______ ____
ROOT
ATOM     10  C   UNL     1     -15.423 -20.704  19.907  0.00  0.00    +0.038 A 
ATOM     11  C   UNL     1     -14.179 -21.376  20.016  0.00  0.00    +0.047 A 
ATOM     12  C   UNL     1     -14.092 -22.710  20.588  0.00  0.00    +0.035 A 
ATOM     32  C   UNL     1     -15.293 -23.332  21.037  0.00  0.00    +0.024 A 
ATOM     33  C   UNL     1     -16.566 -22.663  20.935  0.00  0.00    +0.007 A 
ATOM     34  C   UNL     1     -16.658 -21.346  20.373  0.00  0.00    -0.029 A 
ATOM     35  C   UNL     1     -18.048 -20.674  20.294  0.00  0.00    +0.045 C 
ENDROOT
BRANCH  10   9
ATOM      4  C   UNL     1     -16.315 -17.681  16.287  0.00  0.00    +0.077 A 
ATOM      5  C   UNL     1     -16.742 -18.746  15.425  0.00  0.00    +0.048 A 
ATOM      6  C   UNL     1     -16.710 -20.057  15.949  0.00  0.00    +0.116 A 
ATOM      7  N   UNL     1     -16.281 -20.276  17.240  0.00  0.00    -0.223 NA
ATOM      8  C   UNL     1     -15.875 -19.227  18.045  0.00  0.00    +0.220 A 
ATOM      9  N   UNL     1     -15.448 -19.424  19.349  0.00  0.00    -0.283 N 
ATOM     36  H   UNL     1     -15.150 -18.624  19.907  0.00  0.00    +0.155 HD
ATOM     37  N   UNL     1     -15.895 -17.966  17.567  0.00  0.00    -0.214 NA
BRANCH   4   3
ATOM      1  C   UNL     1     -16.187 -13.773  16.391  0.00  0.00    +0.020 A 
ATOM      2  C   UNL     1     -16.203 -15.147  16.838  0.00  0.00    +0.013 A 
ATOM      3  C   UNL     1     -16.295 -16.241  15.879  0.00  0.00    +0.019 A 
ATOM     38  C   UNL     1     -16.369 -15.908  14.464  0.00  0.00    +0.120 A 
ATOM     39  N   UNL     1     -16.353 -14.575  14.064  0.00  0.00    -0.263 NA
ATOM     40  C   UNL     1     -16.266 -13.514  14.978  0.00  0.00    +0.111 A 
ENDBRANCH   4   3
ENDBRANCH  10   9
BRANCH  12  13
ATOM     13  N   UNL     1     -12.855 -23.438  20.733  0.00  0.00    -0.281 N 
ATOM     14  C   UNL     1     -12.471 -24.600  20.084  0.00  0.00    +0.248 C 
ATOM     30  O   UNL     1     -13.224 -25.312  19.436  0.00  0.00    -0.270 OA
ATOM     31  H   UNL     1     -12.182 -23.050  21.393  0.00  0.00    +0.155 HD
BRANCH  14  15
ATOM     15  C   UNL     1     -11.047 -25.044  20.182  0.00  0.00    +0.037 A 
ATOM     16  C   UNL     1     -10.500 -26.049  19.266  0.00  0.00    +0.013 A 
ATOM     17  C   UNL     1      -9.128 -26.472  19.393  0.00  0.00    +0.005 A 
ATOM     18  C   UNL     1      -8.293 -25.889  20.440  0.00  0.00    -0.033 A 
ATOM     28  C   UNL     1      -8.859 -24.890  21.332  0.00  0.00    +0.005 A 
ATOM     29  C   UNL     1     -10.204 -24.474  21.211  0.00  0.00    +0.013 A 
BRANCH  18  19
ATOM     19  C   UNL     1      -6.824 -26.296  20.663  0.00  0.00    +0.119 C 
BRANCH  19  20
ATOM     20  N   UNL     1      -6.565 -27.689  21.136  0.00  0.00    -0.302 NA
ATOM     21  C   UNL     1      -6.365 -28.663  19.972  0.00  0.00    +0.066 C 
ATOM     22  C   UNL     1      -6.073 -30.111  20.486  0.00  0.00    -0.064 C 
ATOM     23  N   UNL     1      -7.220 -30.571  21.387  0.00  0.00    +0.379 N 
ATOM     24  C   UNL     1      -6.976 -31.953  21.824  0.00  0.00    -0.096 C 
ATOM     25  H   UNL     1      -8.152 -30.569  20.775  0.00  0.00    -0.082 HD
ATOM     26  C   UNL     1      -7.427 -29.606  22.545  0.00  0.00    -0.064 C 
ATOM     27  C   UNL     1      -7.688 -28.165  22.024  0.00  0.00    +0.066 C 
ENDBRANCH  19  20
ENDBRANCH  18  19
ENDBRANCH  14  15
ENDBRANCH  12  13
TORSDOF 6
ENDMDL
