MODEL 1
REMARK VINA RESULT:      -7.8      0.000      0.000
REMARK  Name = C:\Users\Docking\Desktop\test protocol\1iep_ligandH.pdb
REMARK  8 active torsions:
REMARK  status: ('A' for Active; 'I' for Inactive)
REMARK    1  A    between atoms: _5  and  _11
REMARK    2  A    between atoms: _19  and  _21
REMARK    3  A    between atoms: _22  and  _66
REMARK    4  A    between atoms: _27  and  _30
REMARK    5  A    between atoms: _32  and  _33
REMARK    6  A    between atoms: _38  and  _43
REMARK    7  A    between atoms: _43  and  _46
REMARK    8  A    between atoms: _53  and  _55
REMARK                            x       y       z     vdW  Elec       q    Type
REMARK                         _______ _______ _______ _____ _____    ______ ____
ROOT
ATOM     10  C   UNL     1       6.255 -14.498  32.527  0.00  0.00    +0.038 A 
ATOM     11  C   UNL     1       4.905 -14.666  32.128  0.00  0.00    +0.047 A 
ATOM     12  C   UNL     1       3.809 -14.369  33.038  0.00  0.00    +0.035 A 
ATOM     32  C   UNL     1       4.125 -13.900  34.346  0.00  0.00    +0.024 A 
ATOM     33  C   UNL     1       5.492 -13.725  34.769  0.00  0.00    +0.007 A 
ATOM     34  C   UNL     1       6.577 -14.018  33.877  0.00  0.00    -0.029 A 
ATOM     35  C   UNL     1       8.024 -13.818  34.386  0.00  0.00    +0.045 C 
ENDROOT
BRANCH  10   9
ATOM      4  C   UNL     1       9.559 -17.456  30.691  0.00  0.00    +0.077 A 
ATOM      5  C   UNL     1       9.261 -18.480  31.650  0.00  0.00    +0.048 A 
ATOM      6  C   UNL     1       8.255 -18.203  32.603  0.00  0.00    +0.116 A 
ATOM      7  N   UNL     1       7.603 -16.989  32.589  0.00  0.00    -0.223 NA
ATOM      8  C   UNL     1       7.917 -16.023  31.651  0.00  0.00    +0.220 A 
ATOM      9  N   UNL     1       7.268 -14.798  31.614  0.00  0.00    -0.283 N 
ATOM     36  H   UNL     1       7.533 -14.108  30.911  0.00  0.00    +0.155 HD
ATOM     37  N   UNL     1       8.874 -16.262  30.731  0.00  0.00    -0.214 NA
BRANCH   4   3
ATOM      1  C   UNL     1      11.335 -17.561  27.207  0.00  0.00    +0.020 A 
ATOM      2  C   UNL     1      10.299 -17.411  28.203  0.00  0.00    +0.013 A 
ATOM      3  C   UNL     1      10.594 -17.599  29.618  0.00  0.00    +0.019 A 
ATOM     38  C   UNL     1      11.957 -17.941  29.995  0.00  0.00    +0.120 A 
ATOM     39  N   UNL     1      12.933 -18.080  29.013  0.00  0.00    -0.263 NA
ATOM     40  C   UNL     1      12.661 -17.903  27.649  0.00  0.00    +0.111 A 
ENDBRANCH   4   3
ENDBRANCH  10   9
BRANCH  12  13
ATOM     13  N   UNL     1       2.418 -14.528  32.691  0.00  0.00    -0.281 N 
ATOM     14  C   UNL     1       1.779 -14.128  31.529  0.00  0.00    +0.248 C 
ATOM     30  O   UNL     1       2.265 -13.378  30.696  0.00  0.00    -0.270 OA
ATOM     31  H   UNL     1       1.834 -14.992  33.387  0.00  0.00    +0.155 HD
BRANCH  14  15
ATOM     15  C   UNL     1       0.394 -14.622  31.260  0.00  0.00    +0.037 A 
ATOM     16  C   UNL     1      -0.502 -13.910  30.345  0.00  0.00    +0.013 A 
ATOM     17  C   UNL     1      -1.839 -14.398  30.116  0.00  0.00    +0.005 A 
ATOM     18  C   UNL     1      -2.287 -15.606  30.804  0.00  0.00    -0.033 A 
ATOM     28  C   UNL     1      -1.376 -16.296  31.702  0.00  0.00    +0.005 A 
ATOM     29  C   UNL     1      -0.065 -15.820  31.930  0.00  0.00    +0.013 A 
BRANCH  18  19
ATOM     19  C   UNL     1      -3.704 -16.187  30.636  0.00  0.00    +0.119 C 
BRANCH  19  20
ATOM     20  N   UNL     1      -3.848 -17.672  30.712  0.00  0.00    -0.302 NA
ATOM     21  C   UNL     1      -4.327 -18.271  29.388  0.00  0.00    +0.066 C 
ATOM     22  C   UNL     1      -4.451 -19.827  29.478  0.00  0.00    -0.064 C 
ATOM     23  N   UNL     1      -5.405 -20.195  30.616  0.00  0.00    +0.379 N 
ATOM     24  C   UNL     1      -5.568 -21.655  30.667  0.00  0.00    -0.096 C 
ATOM     25  H   UNL     1      -6.400 -19.751  30.380  0.00  0.00    -0.082 HD
ATOM     26  C   UNL     1      -4.937 -19.600  31.937  0.00  0.00    -0.064 C 
ATOM     27  C   UNL     1      -4.789 -18.057  31.827  0.00  0.00    +0.066 C 
ENDBRANCH  19  20
ENDBRANCH  18  19
ENDBRANCH  14  15
ENDBRANCH  12  13
TORSDOF 6
ENDMDL
MODEL 2
REMARK VINA RESULT:      -7.8     19.259     23.228
REMARK  Name = C:\Users\Docking\Desktop\test protocol\1iep_ligandH.pdb
REMARK  8 active torsions:
REMARK  status: ('A' for Active; 'I' for Inactive)
REMARK    1  A    between atoms: _5  and  _11
REMARK    2  A    between atoms: _19  and  _21
REMARK    3  A    between atoms: _22  and  _66
REMARK    4  A    between atoms: _27  and  _30
REMARK    5  A    between atoms: _32  and  _33
REMARK    6  A    between atoms: _38  and  _43
REMARK    7  A    between atoms: _43  and  _46
REMARK    8  A    between atoms: _53  and  _55
REMARK                            x       y       z     vdW  Elec       q    Type
REMARK                         _______ _______ _______ _____ _____    ______ ____
ROOT
ATOM     10  C   UNL     1     -13.576 -22.120  21.686  0.00  0.00    +0.038 A 
ATOM     11  C   UNL     1     -13.783 -21.194  20.633  0.00  0.00    +0.047 A 
ATOM     12  C   UNL     1     -15.003 -20.405  20.552  0.00  0.00    +0.035 A 
ATOM     32  C   UNL     1     -15.991 -20.584  21.564  0.00  0.00    +0.024 A 
ATOM     33  C   UNL     1     -15.797 -21.522  22.642  0.00  0.00    +0.007 A 
ATOM     34  C   UNL     1     -14.597 -22.304  22.725  0.00  0.00    -0.029 A 
ATOM     35  C   UNL     1     -14.446 -23.300  23.899  0.00  0.00    +0.045 C 
ENDROOT
BRANCH  10   9
ATOM      4  C   UNL     1     -10.755 -25.676  20.126  0.00  0.00    +0.077 A 
ATOM      5  C   UNL     1     -11.746 -26.133  19.195  0.00  0.00    +0.048 A 
ATOM      6  C   UNL     1     -12.971 -25.431  19.154  0.00  0.00    +0.116 A 
ATOM      7  N   UNL     1     -13.179 -24.352  19.986  0.00  0.00    -0.223 NA
ATOM      8  C   UNL     1     -12.202 -23.938  20.874  0.00  0.00    +0.220 A 
ATOM      9  N   UNL     1     -12.386 -22.851  21.714  0.00  0.00    -0.283 N 
ATOM     36  H   UNL     1     -11.645 -22.581  22.360  0.00  0.00    +0.155 HD
ATOM     37  N   UNL     1     -11.025 -24.593  20.933  0.00  0.00    -0.214 NA
BRANCH   4   3
ATOM      1  C   UNL     1      -7.080 -26.406  21.248  0.00  0.00    +0.020 A 
ATOM      2  C   UNL     1      -8.362 -25.751  21.129  0.00  0.00    +0.013 A 
ATOM      3  C   UNL     1      -9.410 -26.313  20.285  0.00  0.00    +0.019 A 
ATOM     38  C   UNL     1      -9.125 -27.548  19.570  0.00  0.00    +0.120 A 
ATOM     39  N   UNL     1      -7.881 -28.156  19.703  0.00  0.00    -0.263 NA
ATOM     40  C   UNL     1      -6.864 -27.624  20.511  0.00  0.00    +0.111 A 
ENDBRANCH   4   3
ENDBRANCH  10   9
BRANCH  12  13
ATOM     13  N   UNL     1     -15.272 -19.455  19.502  0.00  0.00    -0.281 N 
ATOM     14  C   UNL     1     -15.657 -19.715  18.196  0.00  0.00    +0.248 C 
ATOM     30  O   UNL     1     -15.620 -20.818  17.672  0.00  0.00    -0.270 OA
ATOM     31  H   UNL     1     -15.167 -18.471  19.750  0.00  0.00    +0.155 HD
BRANCH  14  15
ATOM     15  C   UNL     1     -16.137 -18.584  17.346  0.00  0.00    +0.037 A 
ATOM     16  C   UNL     1     -17.159 -18.788  16.316  0.00  0.00    +0.013 A 
ATOM     17  C   UNL     1     -17.593 -17.683  15.499  0.00  0.00    +0.005 A 
ATOM     18  C   UNL     1     -17.005 -16.362  15.709  0.00  0.00    -0.033 A 
ATOM     28  C   UNL     1     -15.997 -16.186  16.742  0.00  0.00    +0.005 A 
ATOM     29  C   UNL     1     -15.568 -17.267  17.544  0.00  0.00    +0.013 A 
BRANCH  18  19
ATOM     19  C   UNL     1     -17.392 -15.130  14.869  0.00  0.00    +0.119 C 
BRANCH  19  20
ATOM     20  N   UNL     1     -16.300 -14.448  14.113  0.00  0.00    -0.302 NA
ATOM     21  C   UNL     1     -16.328 -12.929  14.309  0.00  0.00    +0.066 C 
ATOM     22  C   UNL     1     -15.166 -12.233  13.529  0.00  0.00    -0.064 C 
ATOM     23  N   UNL     1     -15.266 -12.590  12.045  0.00  0.00    +0.379 N 
ATOM     24  C   UNL     1     -14.208 -11.891  11.300  0.00  0.00    -0.096 C 
ATOM     25  H   UNL     1     -16.247 -12.215  11.672  0.00  0.00    -0.082 HD
ATOM     26  C   UNL     1     -15.241 -14.099  11.841  0.00  0.00    -0.064 C 
ATOM     27  C   UNL     1     -16.382 -14.783  12.644  0.00  0.00    +0.066 C 
ENDBRANCH  19  20
ENDBRANCH  18  19
ENDBRANCH  14  15
ENDBRANCH  12  13
TORSDOF 6
ENDMDL
MODEL 3
REMARK VINA RESULT:      -7.8      1.830      2.729
REMARK  Name = C:\Users\Docking\Desktop\test protocol\1iep_ligandH.pdb
REMARK  8 active torsions:
REMARK  status: ('A' for Active; 'I' for Inactive)
REMARK    1  A    between atoms: _5  and  _11
REMARK    2  A    between atoms: _19  and  _21
REMARK    3  A    between atoms: _22  and  _66
REMARK    4  A    between atoms: _27  and  _30
REMARK    5  A    between atoms: _32  and  _33
REMARK    6  A    between atoms: _38  and  _43
REMARK    7  A    between atoms: _43  and  _46
REMARK    8  A    between atoms: _53  and  _55
REMARK                            x       y       z     vdW  Elec       q    Type
REMARK                         _______ _______ _______ _____ _____    ______ ____
ROOT
ATOM     10  C   UNL     1       6.356 -14.546  32.580  0.00  0.00    +0.038 A 
ATOM     11  C   UNL     1       5.000 -14.684  32.190  0.00  0.00    +0.047 A 
ATOM     12  C   UNL     1       3.917 -14.407  33.120  0.00  0.00    +0.035 A 
ATOM     32  C   UNL     1       4.252 -13.988  34.441  0.00  0.00    +0.024 A 
ATOM     33  C   UNL     1       5.626 -13.844  34.855  0.00  0.00    +0.007 A 
ATOM     34  C   UNL     1       6.698 -14.118  33.942  0.00  0.00    -0.029 A 
ATOM     35  C   UNL     1       8.152 -13.953  34.442  0.00  0.00    +0.045 C 
ENDROOT
BRANCH  10   9
ATOM      4  C   UNL     1       9.609 -17.474  30.609  0.00  0.00    +0.077 A 
ATOM      5  C   UNL     1       9.310 -18.527  31.536  0.00  0.00    +0.048 A 
ATOM      6  C   UNL     1       8.318 -18.272  32.510  0.00  0.00    +0.116 A 
ATOM      7  N   UNL     1       7.679 -17.052  32.543  0.00  0.00    -0.223 NA
ATOM      8  C   UNL     1       7.992 -16.058  31.635  0.00  0.00    +0.220 A 
ATOM      9  N   UNL     1       7.356 -14.826  31.645  0.00  0.00    -0.283 N 
ATOM     36  H   UNL     1       7.620 -14.116  30.963  0.00  0.00    +0.155 HD
ATOM     37  N   UNL     1       8.936 -16.276  30.696  0.00  0.00    -0.214 NA
BRANCH   4   3
ATOM      1  C   UNL     1      12.975 -18.012  28.690  0.00  0.00    +0.020 A 
ATOM      2  C   UNL     1      12.029 -17.909  29.777  0.00  0.00    +0.013 A 
ATOM      3  C   UNL     1      10.630 -17.593  29.520  0.00  0.00    +0.019 A 
ATOM     38  C   UNL     1      10.216 -17.385  28.140  0.00  0.00    +0.120 A 
ATOM     39  N   UNL     1      11.150 -17.490  27.114  0.00  0.00    -0.263 NA
ATOM     40  C   UNL     1      12.499 -17.792  27.350  0.00  0.00    +0.111 A 
ENDBRANCH   4   3
ENDBRANCH  10   9
BRANCH  12  13
ATOM     13  N   UNL     1       2.521 -14.537  32.783  0.00  0.00    -0.281 N 
ATOM     14  C   UNL     1       1.884 -14.135  31.621  0.00  0.00    +0.248 C 
ATOM     30  O   UNL     1       2.383 -13.405  30.777  0.00  0.00    -0.270 OA
ATOM     31  H   UNL     1       1.930 -14.979  33.488  0.00  0.00    +0.155 HD
BRANCH  14  15
ATOM     15  C   UNL     1       0.487 -14.599  31.365  0.00  0.00    +0.037 A 
ATOM     16  C   UNL     1      -0.358 -13.949  30.359  0.00  0.00    +0.013 A 
ATOM     17  C   UNL     1      -1.708 -14.405  30.145  0.00  0.00    +0.005 A 
ATOM     18  C   UNL     1      -2.222 -15.520  30.937  0.00  0.00    -0.033 A 
ATOM     28  C   UNL     1      -1.361 -16.149  31.925  0.00  0.00    +0.005 A 
ATOM     29  C   UNL     1      -0.037 -15.704  32.139  0.00  0.00    +0.013 A 
BRANCH  18  19
ATOM     19  C   UNL     1      -3.657 -16.059  30.790  0.00  0.00    +0.119 C 
BRANCH  19  20
ATOM     20  N   UNL     1      -4.776 -15.094  31.008  0.00  0.00    -0.302 NA
ATOM     21  C   UNL     1      -4.642 -14.350  32.340  0.00  0.00    +0.066 C 
ATOM     22  C   UNL     1      -5.808 -13.328  32.541  0.00  0.00    -0.064 C 
ATOM     23  N   UNL     1      -7.146 -14.065  32.465  0.00  0.00    +0.379 N 
ATOM     24  C   UNL     1      -8.243 -13.117  32.711  0.00  0.00    -0.096 C 
ATOM     25  H   UNL     1      -7.163 -14.822  33.283  0.00  0.00    -0.082 HD
ATOM     26  C   UNL     1      -7.287 -14.810  31.144  0.00  0.00    -0.064 C 
ATOM     27  C   UNL     1      -6.107 -15.801  30.941  0.00  0.00    +0.066 C 
ENDBRANCH  19  20
ENDBRANCH  18  19
ENDBRANCH  14  15
ENDBRANCH  12  13
TORSDOF 6
ENDMDL
MODEL 4
REMARK VINA RESULT:      -7.6     18.899     20.186
REMARK  Name = C:\Users\Docking\Desktop\test protocol\1iep_ligandH.pdb
REMARK  8 active torsions:
REMARK  status: ('A' for Active; 'I' for Inactive)
REMARK    1  A    between atoms: _5  and  _11
REMARK    2  A    between atoms: _19  and  _21
REMARK    3  A    between atoms: _22  and  _66
REMARK    4  A    between atoms: _27  and  _30
REMARK    5  A    between atoms: _32  and  _33
REMARK    6  A    between atoms: _38  and  _43
REMARK    7  A    between atoms: _43  and  _46
REMARK    8  A    between atoms: _53  and  _55
REMARK                            x       y       z     vdW  Elec       q    Type
REMARK                         _______ _______ _______ _____ _____    ______ ____
ROOT
ATOM     10  C   UNL     1       6.494 -20.075  13.119  0.00  0.00    +0.038 A 
ATOM     11  C   UNL     1       5.146 -19.842  12.744  0.00  0.00    +0.047 A 
ATOM     12  C   UNL     1       4.229 -20.946  12.504  0.00  0.00    +0.035 A 
ATOM     32  C   UNL     1       4.719 -22.275  12.658  0.00  0.00    +0.024 A 
ATOM     33  C   UNL     1       6.086 -22.531  13.038  0.00  0.00    +0.007 A 
ATOM     34  C   UNL     1       6.995 -21.446  13.273  0.00  0.00    -0.029 A 
ATOM     35  C   UNL     1       8.452 -21.779  13.672  0.00  0.00    +0.045 C 
ENDROOT
BRANCH  10   9
ATOM      4  C   UNL     1       9.452 -16.633  11.558  0.00  0.00    +0.077 A 
ATOM      5  C   UNL     1       9.344 -17.075  10.197  0.00  0.00    +0.048 A 
ATOM      6  C   UNL     1       8.522 -18.196   9.942  0.00  0.00    +0.116 A 
ATOM      7  N   UNL     1       7.863 -18.820  10.979  0.00  0.00    -0.223 NA
ATOM      8  C   UNL     1       7.990 -18.370  12.280  0.00  0.00    +0.220 A 
ATOM      9  N   UNL     1       7.330 -18.978  13.336  0.00  0.00    -0.283 N 
ATOM     36  H   UNL     1       7.456 -18.620  14.283  0.00  0.00    +0.155 HD
ATOM     37  N   UNL     1       8.770 -17.302  12.549  0.00  0.00    -0.214 NA
BRANCH   4   3
ATOM      1  C   UNL     1      10.673 -13.387  13.368  0.00  0.00    +0.020 A 
ATOM      2  C   UNL     1       9.835 -14.502  12.989  0.00  0.00    +0.013 A 
ATOM      3  C   UNL     1      10.280 -15.461  11.986  0.00  0.00    +0.019 A 
ATOM     38  C   UNL     1      11.588 -15.263  11.381  0.00  0.00    +0.120 A 
ATOM     39  N   UNL     1      12.372 -14.180  11.765  0.00  0.00    -0.263 NA
ATOM     40  C   UNL     1      11.954 -13.249  12.727  0.00  0.00    +0.111 A 
ENDBRANCH   4   3
ENDBRANCH  10   9
BRANCH  12  13
ATOM     13  N   UNL     1       2.853 -20.770  12.113  0.00  0.00    -0.281 N 
ATOM     14  C   UNL     1       2.344 -20.610  10.835  0.00  0.00    +0.248 C 
ATOM     30  O   UNL     1       3.023 -20.378   9.845  0.00  0.00    -0.270 OA
ATOM     31  H   UNL     1       2.170 -20.763  12.871  0.00  0.00    +0.155 HD
BRANCH  14  15
ATOM     15  C   UNL     1       0.867 -20.706  10.628  0.00  0.00    +0.037 A 
ATOM     16  C   UNL     1       0.264 -21.880   9.991  0.00  0.00    +0.013 A 
ATOM     17  C   UNL     1      -1.162 -21.940   9.788  0.00  0.00    +0.005 A 
ATOM     18  C   UNL     1      -1.995 -20.822  10.224  0.00  0.00    -0.033 A 
ATOM     28  C   UNL     1      -1.371 -19.673  10.858  0.00  0.00    +0.005 A 
ATOM     29  C   UNL     1       0.026 -19.610  11.058  0.00  0.00    +0.013 A 
BRANCH  18  19
ATOM     19  C   UNL     1      -3.522 -20.792  10.029  0.00  0.00    +0.119 C 
BRANCH  19  20
ATOM     20  N   UNL     1      -4.342 -21.675  10.911  0.00  0.00    -0.302 NA
ATOM     21  C   UNL     1      -3.784 -21.742  12.335  0.00  0.00    +0.066 C 
ATOM     22  C   UNL     1      -4.667 -22.653  13.250  0.00  0.00    -0.064 C 
ATOM     23  N   UNL     1      -4.758 -24.051  12.637  0.00  0.00    +0.379 N 
ATOM     24  C   UNL     1      -5.539 -24.926  13.524  0.00  0.00    -0.096 C 
ATOM     25  H   UNL     1      -3.724 -24.464  12.580  0.00  0.00    -0.082 HD
ATOM     26  C   UNL     1      -5.310 -23.993  11.219  0.00  0.00    -0.064 C 
ATOM     27  C   UNL     1      -4.442 -23.063  10.326  0.00  0.00    +0.066 C 
ENDBRANCH  19  20
ENDBRANCH  18  19
ENDBRANCH  14  15
ENDBRANCH  12  13
TORSDOF 6
ENDMDL
MODEL 5
REMARK VINA RESULT:      -7.6     25.680     28.252
REMARK  Name = C:\Users\Docking\Desktop\test protocol\1iep_ligandH.pdb
REMARK  8 active torsions:
REMARK  status: ('A' for Active; 'I' for Inactive)
REMARK    1  A    between atoms: _5  and  _11
REMARK    2  A    between atoms: _19  and  _21
REMARK    3  A    between atoms: _22  and  _66
REMARK    4  A    between atoms: _27  and  _30
REMARK    5  A    between atoms: _32  and  _33
REMARK    6  A    between atoms: _38  and  _43
REMARK    7  A    between atoms: _43  and  _46
REMARK    8  A    between atoms: _53  and  _55
REMARK                            x       y       z     vdW  Elec       q    Type
REMARK                         _______ _______ _______ _____ _____    ______ ____
ROOT
ATOM     10  C   UNL     1      -2.104  -1.978   6.327  0.00  0.00    +0.038 A 
ATOM     11  C   UNL     1      -2.229  -1.574   7.681  0.00  0.00    +0.047 A 
ATOM     12  C   UNL     1      -3.338  -0.742   8.119  0.00  0.00    +0.035 A 
ATOM     32  C   UNL     1      -4.305  -0.341   7.151  0.00  0.00    +0.024 A 
ATOM     33  C   UNL     1      -4.193  -0.741   5.770  0.00  0.00    +0.007 A 
ATOM     34  C   UNL     1      -3.099  -1.560   5.332  0.00  0.00    -0.029 A 
ATOM     35  C   UNL     1      -3.026  -1.954   3.839  0.00  0.00    +0.045 C 
ENDROOT
BRANCH  10   9
ATOM      4  C   UNL     1       2.587  -2.659   5.573  0.00  0.00    +0.077 A 
ATOM      5  C   UNL     1       2.899  -1.300   5.909  0.00  0.00    +0.048 A 
ATOM      6  C   UNL     1       1.822  -0.456   6.263  0.00  0.00    +0.116 A 
ATOM      7  N   UNL     1       0.534  -0.946   6.278  0.00  0.00    -0.223 NA
ATOM      8  C   UNL     1       0.268  -2.262   5.947  0.00  0.00    +0.220 A 
ATOM      9  N   UNL     1      -1.019  -2.778   5.962  0.00  0.00    -0.283 N 
ATOM     36  H   UNL     1      -1.174  -3.752   5.704  0.00  0.00    +0.155 HD
ATOM     37  N   UNL     1       1.278  -3.087   5.603  0.00  0.00    -0.214 NA
BRANCH   4   3
ATOM      1  C   UNL     1       5.424  -5.349   5.720  0.00  0.00    +0.020 A 
ATOM      2  C   UNL     1       4.445  -4.377   6.151  0.00  0.00    +0.013 A 
ATOM      3  C   UNL     1       3.616  -3.674   5.181  0.00  0.00    +0.019 A 
ATOM     38  C   UNL     1       3.803  -3.979   3.770  0.00  0.00    +0.120 A 
ATOM     39  N   UNL     1       4.754  -4.918   3.384  0.00  0.00    -0.263 NA
ATOM     40  C   UNL     1       5.559  -5.600   4.309  0.00  0.00    +0.111 A 
ENDBRANCH   4   3
ENDBRANCH  10   9
BRANCH  12  13
ATOM     13  N   UNL     1      -3.513  -0.294   9.478  0.00  0.00    -0.281 N 
ATOM     14  C   UNL     1      -4.125  -0.965  10.524  0.00  0.00    +0.248 C 
ATOM     30  O   UNL     1      -4.808  -1.970  10.395  0.00  0.00    -0.270 OA
ATOM     31  H   UNL     1      -3.140   0.630   9.696  0.00  0.00    +0.155 HD
BRANCH  14  15
ATOM     15  C   UNL     1      -3.967  -0.436  11.913  0.00  0.00    +0.037 A 
ATOM     16  C   UNL     1      -4.974  -0.697  12.945  0.00  0.00    +0.013 A 
ATOM     17  C   UNL     1      -4.806  -0.160  14.272  0.00  0.00    +0.005 A 
ATOM     18  C   UNL     1      -3.624   0.643  14.575  0.00  0.00    -0.033 A 
ATOM     28  C   UNL     1      -2.638   0.882  13.534  0.00  0.00    +0.005 A 
ATOM     29  C   UNL     1      -2.800   0.358  12.232  0.00  0.00    +0.013 A 
BRANCH  18  19
ATOM     19  C   UNL     1      -3.373   1.273  15.958  0.00  0.00    +0.119 C 
BRANCH  19  20
ATOM     20  N   UNL     1      -2.630   2.568  15.994  0.00  0.00    -0.302 NA
ATOM     21  C   UNL     1      -1.398   2.499  16.901  0.00  0.00    +0.066 C 
ATOM     22  C   UNL     1      -0.621   3.855  16.910  0.00  0.00    -0.064 C 
ATOM     23  N   UNL     1      -1.561   4.976  17.358  0.00  0.00    +0.379 N 
ATOM     24  C   UNL     1      -0.818   6.243  17.423  0.00  0.00    -0.096 C 
ATOM     25  H   UNL     1      -1.908   4.734  18.389  0.00  0.00    -0.082 HD
ATOM     26  C   UNL     1      -2.790   5.050  16.463  0.00  0.00    -0.064 C 
ATOM     27  C   UNL     1      -3.539   3.689  16.438  0.00  0.00    +0.066 C 
ENDBRANCH  19  20
ENDBRANCH  18  19
ENDBRANCH  14  15
ENDBRANCH  12  13
TORSDOF 6
ENDMDL
