MODEL 1
REMARK VINA RESULT:      -9.9      0.000      0.000
REMARK  Name = C:\Users\Docking\Desktop\test protocol\1iep_ligandH.pdb
REMARK  8 active torsions:
REMARK  status: ('A' for Active; 'I' for Inactive)
REMARK    1  A    between atoms: _5  and  _11
REMARK    2  A    between atoms: _19  and  _21
REMARK    3  A    between atoms: _22  and  _66
REMARK    4  A    between atoms: _27  and  _30
REMARK    5  A    between atoms: _32  and  _33
REMARK    6  A    between atoms: _38  and  _43
REMARK    7  A    between atoms: _43  and  _46
REMARK    8  A    between atoms: _53  and  _55
REMARK                            x       y       z     vdW  Elec       q    Type
REMARK                         _______ _______ _______ _____ _____    ______ ____
ROOT
ATOM     10  C   UNL     1      25.117  22.684  38.121  0.00  0.00    +0.038 A 
ATOM     11  C   UNL     1      23.907  23.424  38.157  0.00  0.00    +0.047 A 
ATOM     12  C   UNL     1      23.534  24.200  39.329  0.00  0.00    +0.035 A 
ATOM     32  C   UNL     1      24.418  24.202  40.447  0.00  0.00    +0.024 A 
ATOM     33  C   UNL     1      25.652  23.455  40.428  0.00  0.00    +0.007 A 
ATOM     34  C   UNL     1      26.024  22.686  39.275  0.00  0.00    -0.029 A 
ATOM     35  C   UNL     1      27.355  21.900  39.313  0.00  0.00    +0.045 C 
ENDROOT
BRANCH  10   9
ATOM      4  C   UNL     1      26.727  22.383  33.609  0.00  0.00    +0.077 A 
ATOM      5  C   UNL     1      26.947  23.798  33.530  0.00  0.00    +0.048 A 
ATOM      6  C   UNL     1      26.626  24.569  34.670  0.00  0.00    +0.116 A 
ATOM      7  N   UNL     1      26.124  23.959  35.799  0.00  0.00    -0.223 NA
ATOM      8  C   UNL     1      25.922  22.592  35.842  0.00  0.00    +0.220 A 
ATOM      9  N   UNL     1      25.426  21.957  36.969  0.00  0.00    -0.283 N 
ATOM     36  H   UNL     1      25.284  20.947  36.958  0.00  0.00    +0.155 HD
ATOM     37  N   UNL     1      26.219  21.834  34.766  0.00  0.00    -0.214 NA
BRANCH   4   3
ATOM      1  C   UNL     1      28.114  19.371  31.535  0.00  0.00    +0.020 A 
ATOM      2  C   UNL     1      27.863  20.256  32.649  0.00  0.00    +0.013 A 
ATOM      3  C   UNL     1      27.020  21.434  32.489  0.00  0.00    +0.019 A 
ATOM     38  C   UNL     1      26.442  21.690  31.178  0.00  0.00    +0.120 A 
ATOM     39  N   UNL     1      26.703  20.821  30.123  0.00  0.00    -0.263 NA
ATOM     40  C   UNL     1      27.514  19.685  30.265  0.00  0.00    +0.111 A 
ENDBRANCH   4   3
ENDBRANCH  10   9
BRANCH  12  13
ATOM     13  N   UNL     1      22.315  24.963  39.426  0.00  0.00    -0.281 N 
ATOM     14  C   UNL     1      21.011  24.498  39.371  0.00  0.00    +0.248 C 
ATOM     30  O   UNL     1      20.694  23.373  39.015  0.00  0.00    -0.270 OA
ATOM     31  H   UNL     1      22.426  25.970  39.551  0.00  0.00    +0.155 HD
BRANCH  14  15
ATOM     15  C   UNL     1      19.899  25.419  39.755  0.00  0.00    +0.037 A 
ATOM     16  C   UNL     1      18.607  24.901  40.214  0.00  0.00    +0.013 A 
ATOM     17  C   UNL     1      17.545  25.811  40.561  0.00  0.00    +0.005 A 
ATOM     18  C   UNL     1      17.771  27.251  40.451  0.00  0.00    -0.033 A 
ATOM     28  C   UNL     1      19.064  27.737  39.998  0.00  0.00    +0.005 A 
ATOM     29  C   UNL     1      20.107  26.848  39.656  0.00  0.00    +0.013 A 
BRANCH  18  19
ATOM     19  C   UNL     1      16.688  28.295  40.780  0.00  0.00    +0.119 C 
BRANCH  19  20
ATOM     20  N   UNL     1      15.648  27.909  41.780  0.00  0.00    -0.302 NA
ATOM     21  C   UNL     1      14.642  26.908  41.206  0.00  0.00    +0.066 C 
ATOM     22  C   UNL     1      13.574  26.498  42.272  0.00  0.00    -0.064 C 
ATOM     23  N   UNL     1      12.860  27.751  42.782  0.00  0.00    +0.379 N 
ATOM     24  C   UNL     1      11.816  27.364  43.742  0.00  0.00    -0.096 C 
ATOM     25  H   UNL     1      12.357  28.231  41.911  0.00  0.00    -0.082 HD
ATOM     26  C   UNL     1      13.853  28.753  43.353  0.00  0.00    -0.064 C 
ATOM     27  C   UNL     1      14.927  29.131  42.294  0.00  0.00    +0.066 C 
ENDBRANCH  19  20
ENDBRANCH  18  19
ENDBRANCH  14  15
ENDBRANCH  12  13
TORSDOF 6
ENDMDL
MODEL 2
REMARK VINA RESULT:      -9.0      9.659     16.706
REMARK  Name = C:\Users\Docking\Desktop\test protocol\1iep_ligandH.pdb
REMARK  8 active torsions:
REMARK  status: ('A' for Active; 'I' for Inactive)
REMARK    1  A    between atoms: _5  and  _11
REMARK    2  A    between atoms: _19  and  _21
REMARK    3  A    between atoms: _22  and  _66
REMARK    4  A    between atoms: _27  and  _30
REMARK    5  A    between atoms: _32  and  _33
REMARK    6  A    between atoms: _38  and  _43
REMARK    7  A    between atoms: _43  and  _46
REMARK    8  A    between atoms: _53  and  _55
REMARK                            x       y       z     vdW  Elec       q    Type
REMARK                         _______ _______ _______ _____ _____    ______ ____
ROOT
ATOM     10  C   UNL     1      35.664  17.402  25.526  0.00  0.00    +0.038 A 
ATOM     11  C   UNL     1      34.509  17.997  26.094  0.00  0.00    +0.047 A 
ATOM     12  C   UNL     1      33.407  17.183  26.583  0.00  0.00    +0.035 A 
ATOM     32  C   UNL     1      33.517  15.765  26.482  0.00  0.00    +0.024 A 
ATOM     33  C   UNL     1      34.684  15.144  25.907  0.00  0.00    +0.007 A 
ATOM     34  C   UNL     1      35.773  15.942  25.420  0.00  0.00    -0.029 A 
ATOM     35  C   UNL     1      36.997  15.223  24.807  0.00  0.00    +0.045 C 
ENDROOT
BRANCH  10   9
ATOM      4  C   UNL     1      39.696  19.913  26.219  0.00  0.00    +0.077 A 
ATOM      5  C   UNL     1      39.744  19.564  27.610  0.00  0.00    +0.048 A 
ATOM      6  C   UNL     1      38.708  18.743  28.109  0.00  0.00    +0.116 A 
ATOM      7  N   UNL     1      37.705  18.308  27.271  0.00  0.00    -0.223 NA
ATOM      8  C   UNL     1      37.687  18.664  25.935  0.00  0.00    +0.220 A 
ATOM      9  N   UNL     1      36.692  18.232  25.072  0.00  0.00    -0.283 N 
ATOM     36  H   UNL     1      36.711  18.522  24.095  0.00  0.00    +0.155 HD
ATOM     37  N   UNL     1      38.664  19.449  25.434  0.00  0.00    -0.214 NA
BRANCH   4   3
ATOM      1  C   UNL     1      41.397  22.703  24.069  0.00  0.00    +0.020 A 
ATOM      2  C   UNL     1      40.370  21.906  24.699  0.00  0.00    +0.013 A 
ATOM      3  C   UNL     1      40.720  20.771  25.543  0.00  0.00    +0.019 A 
ATOM     38  C   UNL     1      42.130  20.467  25.732  0.00  0.00    +0.120 A 
ATOM     39  N   UNL     1      43.098  21.251  25.112  0.00  0.00    -0.263 NA
ATOM     40  C   UNL     1      42.773  22.344  24.296  0.00  0.00    +0.111 A 
ENDBRANCH   4   3
ENDBRANCH  10   9
BRANCH  12  13
ATOM     13  N   UNL     1      32.205  17.730  27.162  0.00  0.00    -0.281 N 
ATOM     14  C   UNL     1      31.791  17.669  28.482  0.00  0.00    +0.248 C 
ATOM     30  O   UNL     1      32.291  16.945  29.330  0.00  0.00    -0.270 OA
ATOM     31  H   UNL     1      31.584  18.223  26.520  0.00  0.00    +0.155 HD
BRANCH  14  15
ATOM     15  C   UNL     1      30.647  18.524  28.921  0.00  0.00    +0.037 A 
ATOM     16  C   UNL     1      30.642  19.970  28.679  0.00  0.00    +0.013 A 
ATOM     17  C   UNL     1      29.534  20.774  29.128  0.00  0.00    +0.005 A 
ATOM     18  C   UNL     1      28.419  20.135  29.822  0.00  0.00    -0.033 A 
ATOM     28  C   UNL     1      28.446  18.698  30.043  0.00  0.00    +0.005 A 
ATOM     29  C   UNL     1      29.532  17.906  29.606  0.00  0.00    +0.013 A 
BRANCH  18  19
ATOM     19  C   UNL     1      27.204  20.918  30.354  0.00  0.00    +0.119 C 
BRANCH  19  20
ATOM     20  N   UNL     1      27.350  21.586  31.682  0.00  0.00    -0.302 NA
ATOM     21  C   UNL     1      27.151  20.606  32.842  0.00  0.00    +0.066 C 
ATOM     22  C   UNL     1      27.329  21.317  34.223  0.00  0.00    -0.064 C 
ATOM     23  N   UNL     1      26.345  22.483  34.325  0.00  0.00    +0.379 N 
ATOM     24  C   UNL     1      26.469  23.117  35.645  0.00  0.00    -0.096 C 
ATOM     25  H   UNL     1      25.315  22.063  34.246  0.00  0.00    -0.082 HD
ATOM     26  C   UNL     1      26.533  23.460  33.173  0.00  0.00    -0.064 C 
ATOM     27  C   UNL     1      26.383  22.738  31.805  0.00  0.00    +0.066 C 
ENDBRANCH  19  20
ENDBRANCH  18  19
ENDBRANCH  14  15
ENDBRANCH  12  13
TORSDOF 6
ENDMDL
MODEL 3
REMARK VINA RESULT:      -9.0     10.180     15.158
REMARK  Name = C:\Users\Docking\Desktop\test protocol\1iep_ligandH.pdb
REMARK  8 active torsions:
REMARK  status: ('A' for Active; 'I' for Inactive)
REMARK    1  A    between atoms: _5  and  _11
REMARK    2  A    between atoms: _19  and  _21
REMARK    3  A    between atoms: _22  and  _66
REMARK    4  A    between atoms: _27  and  _30
REMARK    5  A    between atoms: _32  and  _33
REMARK    6  A    between atoms: _38  and  _43
REMARK    7  A    between atoms: _43  and  _46
REMARK    8  A    between atoms: _53  and  _55
REMARK                            x       y       z     vdW  Elec       q    Type
REMARK                         _______ _______ _______ _____ _____    ______ ____
ROOT
ATOM     10  C   UNL     1      22.208  12.013  32.709  0.00  0.00    +0.038 A 
ATOM     11  C   UNL     1      23.207  12.990  32.953  0.00  0.00    +0.047 A 
ATOM     12  C   UNL     1      23.104  14.328  32.392  0.00  0.00    +0.035 A 
ATOM     32  C   UNL     1      21.968  14.638  31.589  0.00  0.00    +0.024 A 
ATOM     33  C   UNL     1      20.944  13.657  31.329  0.00  0.00    +0.007 A 
ATOM     34  C   UNL     1      21.042  12.334  31.878  0.00  0.00    -0.029 A 
ATOM     35  C   UNL     1      19.917  11.321  31.561  0.00  0.00    +0.045 C 
ENDROOT
BRANCH  10   9
ATOM      4  C   UNL     1      21.470   8.828  36.223  0.00  0.00    +0.077 A 
ATOM      5  C   UNL     1      20.748   9.781  37.016  0.00  0.00    +0.048 A 
ATOM      6  C   UNL     1      20.595  11.082  36.486  0.00  0.00    +0.116 A 
ATOM      7  N   UNL     1      21.128  11.395  35.254  0.00  0.00    -0.223 NA
ATOM      8  C   UNL     1      21.820  10.453  34.517  0.00  0.00    +0.220 A 
ATOM      9  N   UNL     1      22.358  10.743  33.272  0.00  0.00    -0.283 N 
ATOM     36  H   UNL     1      22.868  10.023  32.762  0.00  0.00    +0.155 HD
ATOM     37  N   UNL     1      21.982   9.204  35.001  0.00  0.00    -0.214 NA
BRANCH   4   3
ATOM      1  C   UNL     1      23.223   5.509  37.326  0.00  0.00    +0.020 A 
ATOM      2  C   UNL     1      23.043   6.885  36.920  0.00  0.00    +0.013 A 
ATOM      3  C   UNL     1      21.713   7.412  36.645  0.00  0.00    +0.019 A 
ATOM     38  C   UNL     1      20.576   6.516  36.791  0.00  0.00    +0.120 A 
ATOM     39  N   UNL     1      20.780   5.196  37.181  0.00  0.00    -0.263 NA
ATOM     40  C   UNL     1      22.055   4.676  37.447  0.00  0.00    +0.111 A 
ENDBRANCH   4   3
ENDBRANCH  10   9
BRANCH  12  13
ATOM     13  N   UNL     1      24.091  15.358  32.599  0.00  0.00    -0.281 N 
ATOM     14  C   UNL     1      25.429  15.340  32.242  0.00  0.00    +0.248 C 
ATOM     30  O   UNL     1      26.034  14.342  31.879  0.00  0.00    -0.270 OA
ATOM     31  H   UNL     1      23.763  16.204  33.066  0.00  0.00    +0.155 HD
BRANCH  14  15
ATOM     15  C   UNL     1      26.212  16.611  32.312  0.00  0.00    +0.037 A 
ATOM     16  C   UNL     1      26.417  17.309  33.584  0.00  0.00    +0.013 A 
ATOM     17  C   UNL     1      27.162  18.542  33.620  0.00  0.00    +0.005 A 
ATOM     18  C   UNL     1      27.710  19.085  32.380  0.00  0.00    -0.033 A 
ATOM     28  C   UNL     1      27.497  18.370  31.133  0.00  0.00    +0.005 A 
ATOM     29  C   UNL     1      26.766  17.161  31.092  0.00  0.00    +0.013 A 
BRANCH  18  19
ATOM     19  C   UNL     1      28.500  20.406  32.322  0.00  0.00    +0.119 C 
BRANCH  19  20
ATOM     20  N   UNL     1      27.821  21.582  31.701  0.00  0.00    -0.302 NA
ATOM     21  C   UNL     1      28.778  22.408  30.836  0.00  0.00    +0.066 C 
ATOM     22  C   UNL     1      28.045  23.621  30.176  0.00  0.00    -0.064 C 
ATOM     23  N   UNL     1      27.417  24.489  31.268  0.00  0.00    +0.379 N 
ATOM     24  C   UNL     1      26.777  25.662  30.654  0.00  0.00    -0.096 C 
ATOM     25  H   UNL     1      28.240  24.857  31.923  0.00  0.00    -0.082 HD
ATOM     26  C   UNL     1      26.466  23.675  32.134  0.00  0.00    -0.064 C 
ATOM     27  C   UNL     1      27.196  22.455  32.761  0.00  0.00    +0.066 C 
ENDBRANCH  19  20
ENDBRANCH  18  19
ENDBRANCH  14  15
ENDBRANCH  12  13
TORSDOF 6
ENDMDL
MODEL 4
REMARK VINA RESULT:      -8.9      6.795     12.484
REMARK  Name = C:\Users\Docking\Desktop\test protocol\1iep_ligandH.pdb
REMARK  8 active torsions:
REMARK  status: ('A' for Active; 'I' for Inactive)
REMARK    1  A    between atoms: _5  and  _11
REMARK    2  A    between atoms: _19  and  _21
REMARK    3  A    between atoms: _22  and  _66
REMARK    4  A    between atoms: _27  and  _30
REMARK    5  A    between atoms: _32  and  _33
REMARK    6  A    between atoms: _38  and  _43
REMARK    7  A    between atoms: _43  and  _46
REMARK    8  A    between atoms: _53  and  _55
REMARK                            x       y       z     vdW  Elec       q    Type
REMARK                         _______ _______ _______ _____ _____    ______ ____
ROOT
ATOM     10  C   UNL     1      13.008  25.203  39.161  0.00  0.00    +0.038 A 
ATOM     11  C   UNL     1      12.258  26.402  39.048  0.00  0.00    +0.047 A 
ATOM     12  C   UNL     1      10.815  26.407  39.231  0.00  0.00    +0.035 A 
ATOM     32  C   UNL     1      10.168  25.173  39.530  0.00  0.00    +0.024 A 
ATOM     33  C   UNL     1      10.914  23.945  39.647  0.00  0.00    +0.007 A 
ATOM     34  C   UNL     1      12.337  23.933  39.466  0.00  0.00    -0.029 A 
ATOM     35  C   UNL     1      13.086  22.586  39.596  0.00  0.00    +0.045 C 
ENDROOT
BRANCH  10   9
ATOM      4  C   UNL     1      17.376  26.814  40.327  0.00  0.00    +0.077 A 
ATOM      5  C   UNL     1      16.855  27.642  41.377  0.00  0.00    +0.048 A 
ATOM      6  C   UNL     1      15.457  27.629  41.580  0.00  0.00    +0.116 A 
ATOM      7  N   UNL     1      14.649  26.844  40.786  0.00  0.00    -0.223 NA
ATOM      8  C   UNL     1      15.184  26.059  39.781  0.00  0.00    +0.220 A 
ATOM      9  N   UNL     1      14.391  25.256  38.975  0.00  0.00    -0.283 N 
ATOM     36  H   UNL     1      14.823  24.697  38.240  0.00  0.00    +0.155 HD
ATOM     37  N   UNL     1      16.516  26.055  39.566  0.00  0.00    -0.214 NA
BRANCH   4   3
ATOM      1  C   UNL     1      20.888  25.424  39.313  0.00  0.00    +0.020 A 
ATOM      2  C   UNL     1      19.479  25.463  39.628  0.00  0.00    +0.013 A 
ATOM      3  C   UNL     1      18.832  26.717  39.992  0.00  0.00    +0.019 A 
ATOM     38  C   UNL     1      19.645  27.923  40.028  0.00  0.00    +0.120 A 
ATOM     39  N   UNL     1      21.001  27.855  39.721  0.00  0.00    -0.263 NA
ATOM     40  C   UNL     1      21.635  26.653  39.371  0.00  0.00    +0.111 A 
ENDBRANCH   4   3
ENDBRANCH  10   9
BRANCH  12  13
ATOM     13  N   UNL     1      10.000  27.592  39.120  0.00  0.00    -0.281 N 
ATOM     14  C   UNL     1      10.130  28.783  39.816  0.00  0.00    +0.248 C 
ATOM     30  O   UNL     1      10.841  28.935  40.799  0.00  0.00    -0.270 OA
ATOM     31  H   UNL     1       9.235  27.547  38.448  0.00  0.00    +0.155 HD
BRANCH  14  15
ATOM     15  C   UNL     1       9.347  29.972  39.364  0.00  0.00    +0.037 A 
ATOM     16  C   UNL     1       8.526  29.925  38.151  0.00  0.00    +0.013 A 
ATOM     17  C   UNL     1       7.794  31.093  37.728  0.00  0.00    +0.005 A 
ATOM     18  C   UNL     1       7.878  32.317  38.520  0.00  0.00    -0.033 A 
ATOM     28  C   UNL     1       8.696  32.335  39.722  0.00  0.00    +0.005 A 
ATOM     29  C   UNL     1       9.416  31.193  40.139  0.00  0.00    +0.013 A 
BRANCH  18  19
ATOM     19  C   UNL     1       7.148  33.616  38.132  0.00  0.00    +0.119 C 
BRANCH  19  20
ATOM     20  N   UNL     1       5.716  33.743  38.537  0.00  0.00    -0.302 NA
ATOM     21  C   UNL     1       4.844  34.289  37.403  0.00  0.00    +0.066 C 
ATOM     22  C   UNL     1       3.345  34.393  37.836  0.00  0.00    -0.064 C 
ATOM     23  N   UNL     1       3.237  35.280  39.078  0.00  0.00    +0.379 N 
ATOM     24  C   UNL     1       1.824  35.428  39.454  0.00  0.00    -0.096 C 
ATOM     25  H   UNL     1       3.622  36.291  38.806  0.00  0.00    -0.082 HD
ATOM     26  C   UNL     1       4.103  34.746  40.210  0.00  0.00    -0.064 C 
ATOM     27  C   UNL     1       5.585  34.618  39.759  0.00  0.00    +0.066 C 
ENDBRANCH  19  20
ENDBRANCH  18  19
ENDBRANCH  14  15
ENDBRANCH  12  13
TORSDOF 6
ENDMDL
MODEL 5
REMARK VINA RESULT:      -8.8      7.655     13.965
REMARK  Name = C:\Users\Docking\Desktop\test protocol\1iep_ligandH.pdb
REMARK  8 active torsions:
REMARK  status: ('A' for Active; 'I' for Inactive)
REMARK    1  A    between atoms: _5  and  _11
REMARK    2  A    between atoms: _19  and  _21
REMARK    3  A    between atoms: _22  and  _66
REMARK    4  A    between atoms: _27  and  _30
REMARK    5  A    between atoms: _32  and  _33
REMARK    6  A    between atoms: _38  and  _43
REMARK    7  A    between atoms: _43  and  _46
REMARK    8  A    between atoms: _53  and  _55
REMARK                            x       y       z     vdW  Elec       q    Type
REMARK                         _______ _______ _______ _____ _____    ______ ____
ROOT
ATOM     10  C   UNL     1      13.311  29.772  42.686  0.00  0.00    +0.038 A 
ATOM     11  C   UNL     1      12.434  30.352  41.734  0.00  0.00    +0.047 A 
ATOM     12  C   UNL     1      11.059  30.680  42.079  0.00  0.00    +0.035 A 
ATOM     32  C   UNL     1      10.611  30.405  43.404  0.00  0.00    +0.024 A 
ATOM     33  C   UNL     1      11.489  29.814  44.384  0.00  0.00    +0.007 A 
ATOM     34  C   UNL     1      12.845  29.487  44.049  0.00  0.00    -0.029 A 
ATOM     35  C   UNL     1      13.740  28.849  45.137  0.00  0.00    +0.045 C 
ENDROOT
BRANCH  10   9
ATOM      4  C   UNL     1      16.618  26.827  40.835  0.00  0.00    +0.077 A 
ATOM      5  C   UNL     1      15.661  25.776  40.644  0.00  0.00    +0.048 A 
ATOM      6  C   UNL     1      14.329  26.031  41.042  0.00  0.00    +0.116 A 
ATOM      7  N   UNL     1      13.992  27.250  41.588  0.00  0.00    -0.223 NA
ATOM      8  C   UNL     1      14.940  28.241  41.761  0.00  0.00    +0.220 A 
ATOM      9  N   UNL     1      14.621  29.477  42.301  0.00  0.00    -0.283 N 
ATOM     36  H   UNL     1      15.351  30.180  42.418  0.00  0.00    +0.155 HD
ATOM     37  N   UNL     1      16.219  28.022  41.390  0.00  0.00    -0.214 NA
BRANCH   4   3
ATOM      1  C   UNL     1      20.099  25.382  39.787  0.00  0.00    +0.020 A 
ATOM      2  C   UNL     1      18.699  25.439  40.142  0.00  0.00    +0.013 A 
ATOM      3  C   UNL     1      18.064  26.711  40.462  0.00  0.00    +0.019 A 
ATOM     38  C   UNL     1      18.878  27.916  40.412  0.00  0.00    +0.120 A 
ATOM     39  N   UNL     1      20.223  27.830  40.069  0.00  0.00    -0.263 NA
ATOM     40  C   UNL     1      20.847  26.611  39.760  0.00  0.00    +0.111 A 
ENDBRANCH   4   3
ENDBRANCH  10   9
BRANCH  12  13
ATOM     13  N   UNL     1      10.121  31.263  41.153  0.00  0.00    -0.281 N 
ATOM     14  C   UNL     1       9.025  30.660  40.558  0.00  0.00    +0.248 C 
ATOM     30  O   UNL     1       8.808  29.457  40.568  0.00  0.00    -0.270 OA
ATOM     31  H   UNL     1      10.285  32.239  40.905  0.00  0.00    +0.155 HD
BRANCH  14  15
ATOM     15  C   UNL     1       8.034  31.514  39.835  0.00  0.00    +0.037 A 
ATOM     16  C   UNL     1       6.641  31.091  39.672  0.00  0.00    +0.013 A 
ATOM     17  C   UNL     1       5.710  31.926  38.956  0.00  0.00    +0.005 A 
ATOM     18  C   UNL     1       6.170  33.196  38.398  0.00  0.00    -0.033 A 
ATOM     28  C   UNL     1       7.556  33.594  38.579  0.00  0.00    +0.005 A 
ATOM     29  C   UNL     1       8.472  32.777  39.280  0.00  0.00    +0.013 A 
BRANCH  18  19
ATOM     19  C   UNL     1       5.251  34.141  37.601  0.00  0.00    +0.119 C 
BRANCH  19  20
ATOM     20  N   UNL     1       4.763  35.368  38.298  0.00  0.00    -0.302 NA
ATOM     21  C   UNL     1       3.234  35.431  38.347  0.00  0.00    +0.066 C 
ATOM     22  C   UNL     1       2.741  36.710  39.099  0.00  0.00    -0.064 C 
ATOM     23  N   UNL     1       3.313  37.953  38.414  0.00  0.00    +0.379 N 
ATOM     24  C   UNL     1       2.804  39.159  39.083  0.00  0.00    -0.096 C 
ATOM     25  H   UNL     1       2.936  37.964  37.365  0.00  0.00    -0.082 HD
ATOM     26  C   UNL     1       4.833  37.897  38.358  0.00  0.00    -0.064 C 
ATOM     27  C   UNL     1       5.312  36.608  37.635  0.00  0.00    +0.066 C 
ENDBRANCH  19  20
ENDBRANCH  18  19
ENDBRANCH  14  15
ENDBRANCH  12  13
TORSDOF 6
ENDMDL
