MODEL 1
REMARK VINA RESULT:      -9.2      0.000      0.000
REMARK  Name = C:\Users\Docking\Desktop\test protocol\1iep_ligandH.pdb
REMARK  8 active torsions:
REMARK  status: ('A' for Active; 'I' for Inactive)
REMARK    1  A    between atoms: _5  and  _11
REMARK    2  A    between atoms: _19  and  _21
REMARK    3  A    between atoms: _22  and  _66
REMARK    4  A    between atoms: _27  and  _30
REMARK    5  A    between atoms: _32  and  _33
REMARK    6  A    between atoms: _38  and  _43
REMARK    7  A    between atoms: _43  and  _46
REMARK    8  A    between atoms: _53  and  _55
REMARK                            x       y       z     vdW  Elec       q    Type
REMARK                         _______ _______ _______ _____ _____    ______ ____
ROOT
ATOM     10  C   UNL     1     -14.158   0.828 -12.769  0.00  0.00    +0.038 A 
ATOM     11  C   UNL     1     -13.542   2.102 -12.679  0.00  0.00    +0.047 A 
ATOM     12  C   UNL     1     -12.112   2.263 -12.896  0.00  0.00    +0.035 A 
ATOM     32  C   UNL     1     -11.341   1.105 -13.206  0.00  0.00    +0.024 A 
ATOM     33  C   UNL     1     -11.952  -0.198 -13.301  0.00  0.00    +0.007 A 
ATOM     34  C   UNL     1     -13.361  -0.363 -13.086  0.00  0.00    -0.029 A 
ATOM     35  C   UNL     1     -13.961  -1.784 -13.194  0.00  0.00    +0.045 C 
ENDROOT
BRANCH  10   9
ATOM      4  C   UNL     1     -18.698   2.006 -13.788  0.00  0.00    +0.077 A 
ATOM      5  C   UNL     1     -18.293   2.912 -14.824  0.00  0.00    +0.048 A 
ATOM      6  C   UNL     1     -16.907   3.051 -15.058  0.00  0.00    +0.116 A 
ATOM      7  N   UNL     1     -16.002   2.333 -14.307  0.00  0.00    -0.223 NA
ATOM      8  C   UNL     1     -16.426   1.469 -13.314  0.00  0.00    +0.220 A 
ATOM      9  N   UNL     1     -15.535   0.731 -12.551  0.00  0.00    -0.283 N 
ATOM     36  H   UNL     1     -15.887   0.110 -11.823  0.00  0.00    +0.155 HD
ATOM     37  N   UNL     1     -17.745   1.319 -13.070  0.00  0.00    -0.214 NA
BRANCH   4   3
ATOM      1  C   UNL     1     -22.015   0.234 -12.709  0.00  0.00    +0.020 A 
ATOM      2  C   UNL     1     -20.625   0.429 -13.053  0.00  0.00    +0.013 A 
ATOM      3  C   UNL     1     -20.127   1.748 -13.423  0.00  0.00    +0.019 A 
ATOM     38  C   UNL     1     -21.069   2.857 -13.435  0.00  0.00    +0.120 A 
ATOM     39  N   UNL     1     -22.402   2.639 -13.100  0.00  0.00    -0.263 NA
ATOM     40  C   UNL     1     -22.893   1.374 -12.744  0.00  0.00    +0.111 A 
ENDBRANCH   4   3
ENDBRANCH  10   9
BRANCH  12  13
ATOM     13  N   UNL     1     -11.429   3.530 -12.809  0.00  0.00    -0.281 N 
ATOM     14  C   UNL     1     -11.735   4.709 -13.469  0.00  0.00    +0.248 C 
ATOM     30  O   UNL     1     -12.519   4.795 -14.403  0.00  0.00    -0.270 OA
ATOM     31  H   UNL     1     -10.623   3.561 -12.186  0.00  0.00    +0.155 HD
BRANCH  14  15
ATOM     15  C   UNL     1     -11.062   5.972 -13.039  0.00  0.00    +0.037 A 
ATOM     16  C   UNL     1     -11.622   7.284 -13.375  0.00  0.00    +0.013 A 
ATOM     17  C   UNL     1     -10.943   8.487 -12.963  0.00  0.00    +0.005 A 
ATOM     18  C   UNL     1      -9.697   8.383 -12.208  0.00  0.00    -0.033 A 
ATOM     28  C   UNL     1      -9.167   7.069 -11.883  0.00  0.00    +0.005 A 
ATOM     29  C   UNL     1      -9.828   5.888 -12.287  0.00  0.00    +0.013 A 
BRANCH  18  19
ATOM     19  C   UNL     1      -8.894   9.614 -11.745  0.00  0.00    +0.119 C 
BRANCH  19  20
ATOM     20  N   UNL     1      -9.531  10.953 -11.925  0.00  0.00    -0.302 NA
ATOM     21  C   UNL     1      -9.164  11.587 -13.269  0.00  0.00    +0.066 C 
ATOM     22  C   UNL     1      -9.857  12.977 -13.451  0.00  0.00    -0.064 C 
ATOM     23  N   UNL     1      -9.463  13.895 -12.293  0.00  0.00    +0.379 N 
ATOM     24  C   UNL     1     -10.066  15.221 -12.491  0.00  0.00    -0.096 C 
ATOM     25  H   UNL     1      -8.355  14.020 -12.322  0.00  0.00    -0.082 HD
ATOM     26  C   UNL     1      -9.821  13.271 -10.952  0.00  0.00    -0.064 C 
ATOM     27  C   UNL     1      -9.152  11.877 -10.794  0.00  0.00    +0.066 C 
ENDBRANCH  19  20
ENDBRANCH  18  19
ENDBRANCH  14  15
ENDBRANCH  12  13
TORSDOF 6
ENDMDL
MODEL 2
REMARK VINA RESULT:      -9.1      1.826      2.597
REMARK  Name = C:\Users\Docking\Desktop\test protocol\1iep_ligandH.pdb
REMARK  8 active torsions:
REMARK  status: ('A' for Active; 'I' for Inactive)
REMARK    1  A    between atoms: _5  and  _11
REMARK    2  A    between atoms: _19  and  _21
REMARK    3  A    between atoms: _22  and  _66
REMARK    4  A    between atoms: _27  and  _30
REMARK    5  A    between atoms: _32  and  _33
REMARK    6  A    between atoms: _38  and  _43
REMARK    7  A    between atoms: _43  and  _46
REMARK    8  A    between atoms: _53  and  _55
REMARK                            x       y       z     vdW  Elec       q    Type
REMARK                         _______ _______ _______ _____ _____    ______ ____
ROOT
ATOM     10  C   UNL     1     -14.492   0.403 -12.730  0.00  0.00    +0.038 A 
ATOM     11  C   UNL     1     -13.816   1.643 -12.602  0.00  0.00    +0.047 A 
ATOM     12  C   UNL     1     -12.378   1.741 -12.800  0.00  0.00    +0.035 A 
ATOM     32  C   UNL     1     -11.660   0.555 -13.131  0.00  0.00    +0.024 A 
ATOM     33  C   UNL     1     -12.330  -0.714 -13.265  0.00  0.00    +0.007 A 
ATOM     34  C   UNL     1     -13.748  -0.817 -13.068  0.00  0.00    -0.029 A 
ATOM     35  C   UNL     1     -14.413  -2.205 -13.218  0.00  0.00    +0.045 C 
ENDROOT
BRANCH  10   9
ATOM      4  C   UNL     1     -18.951   1.889 -13.701  0.00  0.00    +0.077 A 
ATOM      5  C   UNL     1     -18.487   2.837 -14.673  0.00  0.00    +0.048 A 
ATOM      6  C   UNL     1     -17.093   2.916 -14.888  0.00  0.00    +0.116 A 
ATOM      7  N   UNL     1     -16.236   2.102 -14.179  0.00  0.00    -0.223 NA
ATOM      8  C   UNL     1     -16.716   1.200 -13.248  0.00  0.00    +0.220 A 
ATOM      9  N   UNL     1     -15.873   0.366 -12.529  0.00  0.00    -0.283 N 
ATOM     36  H   UNL     1     -16.266  -0.281 -11.846  0.00  0.00    +0.155 HD
ATOM     37  N   UNL     1     -18.043   1.106 -13.023  0.00  0.00    -0.214 NA
BRANCH   4   3
ATOM      1  C   UNL     1     -22.354   0.242 -12.699  0.00  0.00    +0.020 A 
ATOM      2  C   UNL     1     -20.952   0.384 -13.016  0.00  0.00    +0.013 A 
ATOM      3  C   UNL     1     -20.395   1.685 -13.365  0.00  0.00    +0.019 A 
ATOM     38  C   UNL     1     -21.292   2.832 -13.382  0.00  0.00    +0.120 A 
ATOM     39  N   UNL     1     -22.638   2.664 -13.073  0.00  0.00    -0.263 NA
ATOM     40  C   UNL     1     -23.185   1.417 -12.738  0.00  0.00    +0.111 A 
ENDBRANCH   4   3
ENDBRANCH  10   9
BRANCH  12  13
ATOM     13  N   UNL     1     -11.637   2.971 -12.675  0.00  0.00    -0.281 N 
ATOM     14  C   UNL     1     -11.487   3.975 -13.618  0.00  0.00    +0.248 C 
ATOM     30  O   UNL     1     -11.794   3.868 -14.796  0.00  0.00    -0.270 OA
ATOM     31  H   UNL     1     -11.166   3.121 -11.783  0.00  0.00    +0.155 HD
BRANCH  14  15
ATOM     15  C   UNL     1     -10.897   5.282 -13.194  0.00  0.00    +0.037 A 
ATOM     16  C   UNL     1     -10.412   5.489 -11.828  0.00  0.00    +0.013 A 
ATOM     17  C   UNL     1      -9.863   6.764 -11.441  0.00  0.00    +0.005 A 
ATOM     18  C   UNL     1      -9.797   7.843 -12.423  0.00  0.00    -0.033 A 
ATOM     28  C   UNL     1     -10.281   7.609 -13.774  0.00  0.00    +0.005 A 
ATOM     29  C   UNL     1     -10.820   6.360 -14.156  0.00  0.00    +0.013 A 
BRANCH  18  19
ATOM     19  C   UNL     1      -9.247   9.243 -12.092  0.00  0.00    +0.119 C 
BRANCH  19  20
ATOM     20  N   UNL     1      -7.779   9.459 -12.262  0.00  0.00    -0.302 NA
ATOM     21  C   UNL     1      -7.031   8.147 -12.520  0.00  0.00    +0.066 C 
ATOM     22  C   UNL     1      -5.500   8.394 -12.717  0.00  0.00    -0.064 C 
ATOM     23  N   UNL     1      -4.938   9.106 -11.486  0.00  0.00    +0.379 N 
ATOM     24  C   UNL     1      -3.487   9.287 -11.644  0.00  0.00    -0.096 C 
ATOM     25  H   UNL     1      -5.102   8.440 -10.607  0.00  0.00    -0.082 HD
ATOM     26  C   UNL     1      -5.677  10.409 -11.221  0.00  0.00    -0.064 C 
ATOM     27  C   UNL     1      -7.202  10.157 -11.055  0.00  0.00    +0.066 C 
ENDBRANCH  19  20
ENDBRANCH  18  19
ENDBRANCH  14  15
ENDBRANCH  12  13
TORSDOF 6
ENDMDL
MODEL 3
REMARK VINA RESULT:      -8.9      2.554      3.573
REMARK  Name = C:\Users\Docking\Desktop\test protocol\1iep_ligandH.pdb
REMARK  8 active torsions:
REMARK  status: ('A' for Active; 'I' for Inactive)
REMARK    1  A    between atoms: _5  and  _11
REMARK    2  A    between atoms: _19  and  _21
REMARK    3  A    between atoms: _22  and  _66
REMARK    4  A    between atoms: _27  and  _30
REMARK    5  A    between atoms: _32  and  _33
REMARK    6  A    between atoms: _38  and  _43
REMARK    7  A    between atoms: _43  and  _46
REMARK    8  A    between atoms: _53  and  _55
REMARK                            x       y       z     vdW  Elec       q    Type
REMARK                         _______ _______ _______ _____ _____    ______ ____
ROOT
ATOM     10  C   UNL     1     -14.576   4.295 -16.343  0.00  0.00    +0.038 A 
ATOM     11  C   UNL     1     -13.866   5.296 -15.632  0.00  0.00    +0.047 A 
ATOM     12  C   UNL     1     -12.477   5.595 -15.941  0.00  0.00    +0.035 A 
ATOM     32  C   UNL     1     -11.842   4.858 -16.983  0.00  0.00    +0.024 A 
ATOM     33  C   UNL     1     -12.549   3.837 -17.715  0.00  0.00    +0.007 A 
ATOM     34  C   UNL     1     -13.919   3.535 -17.413  0.00  0.00    -0.029 A 
ATOM     35  C   UNL     1     -14.625   2.425 -18.226  0.00  0.00    +0.045 C 
ENDROOT
BRANCH  10   9
ATOM      4  C   UNL     1     -17.955   1.888 -13.929  0.00  0.00    +0.077 A 
ATOM      5  C   UNL     1     -16.986   1.031 -13.310  0.00  0.00    +0.048 A 
ATOM      6  C   UNL     1     -15.629   1.237 -13.645  0.00  0.00    +0.116 A 
ATOM      7  N   UNL     1     -15.279   2.231 -14.534  0.00  0.00    -0.223 NA
ATOM      8  C   UNL     1     -16.239   3.039 -15.114  0.00  0.00    +0.220 A 
ATOM      9  N   UNL     1     -15.909   4.049 -16.005  0.00  0.00    -0.283 N 
ATOM     36  H   UNL     1     -16.647   4.618 -16.417  0.00  0.00    +0.155 HD
ATOM     37  N   UNL     1     -17.542   2.860 -14.812  0.00  0.00    -0.214 NA
BRANCH   4   3
ATOM      1  C   UNL     1     -21.537   0.496 -13.199  0.00  0.00    +0.020 A 
ATOM      2  C   UNL     1     -20.113   0.531 -13.441  0.00  0.00    +0.013 A 
ATOM      3  C   UNL     1     -19.428   1.795 -13.674  0.00  0.00    +0.019 A 
ATOM     38  C   UNL     1     -20.218   3.017 -13.656  0.00  0.00    +0.120 A 
ATOM     39  N   UNL     1     -21.588   2.953 -13.422  0.00  0.00    -0.263 NA
ATOM     40  C   UNL     1     -22.259   1.742 -13.197  0.00  0.00    +0.111 A 
ENDBRANCH   4   3
ENDBRANCH  10   9
BRANCH  12  13
ATOM     13  N   UNL     1     -11.702   6.594 -15.247  0.00  0.00    -0.281 N 
ATOM     14  C   UNL     1     -11.824   7.972 -15.325  0.00  0.00    +0.248 C 
ATOM     30  O   UNL     1     -12.481   8.561 -16.171  0.00  0.00    -0.270 OA
ATOM     31  H   UNL     1     -10.975   6.243 -14.623  0.00  0.00    +0.155 HD
BRANCH  14  15
ATOM     15  C   UNL     1     -11.100   8.819 -14.329  0.00  0.00    +0.037 A 
ATOM     16  C   UNL     1     -10.667   8.272 -13.040  0.00  0.00    +0.013 A 
ATOM     17  C   UNL     1      -9.985   9.115 -12.090  0.00  0.00    +0.005 A 
ATOM     18  C   UNL     1      -9.732  10.514 -12.426  0.00  0.00    -0.033 A 
ATOM     28  C   UNL     1     -10.169  11.029 -13.713  0.00  0.00    +0.005 A 
ATOM     29  C   UNL     1     -10.837  10.206 -14.647  0.00  0.00    +0.013 A 
BRANCH  18  19
ATOM     19  C   UNL     1      -9.031  11.492 -11.464  0.00  0.00    +0.119 C 
BRANCH  19  20
ATOM     20  N   UNL     1      -7.954  12.356 -12.033  0.00  0.00    -0.302 NA
ATOM     21  C   UNL     1      -6.558  11.790 -11.758  0.00  0.00    +0.066 C 
ATOM     22  C   UNL     1      -5.445  12.695 -12.379  0.00  0.00    -0.064 C 
ATOM     23  N   UNL     1      -5.574  14.113 -11.821  0.00  0.00    +0.379 N 
ATOM     24  C   UNL     1      -4.493  14.952 -12.359  0.00  0.00    -0.096 C 
ATOM     25  H   UNL     1      -5.439  14.055 -10.716  0.00  0.00    -0.082 HD
ATOM     26  C   UNL     1      -6.960  14.683 -12.088  0.00  0.00    -0.064 C 
ATOM     27  C   UNL     1      -8.060  13.761 -11.492  0.00  0.00    +0.066 C 
ENDBRANCH  19  20
ENDBRANCH  18  19
ENDBRANCH  14  15
ENDBRANCH  12  13
TORSDOF 6
ENDMDL
MODEL 4
REMARK VINA RESULT:      -8.9     10.991     17.515
REMARK  Name = C:\Users\Docking\Desktop\test protocol\1iep_ligandH.pdb
REMARK  8 active torsions:
REMARK  status: ('A' for Active; 'I' for Inactive)
REMARK    1  A    between atoms: _5  and  _11
REMARK    2  A    between atoms: _19  and  _21
REMARK    3  A    between atoms: _22  and  _66
REMARK    4  A    between atoms: _27  and  _30
REMARK    5  A    between atoms: _32  and  _33
REMARK    6  A    between atoms: _38  and  _43
REMARK    7  A    between atoms: _43  and  _46
REMARK    8  A    between atoms: _53  and  _55
REMARK                            x       y       z     vdW  Elec       q    Type
REMARK                         _______ _______ _______ _____ _____    ______ ____
ROOT
ATOM     10  C   UNL     1     -14.150  -5.820 -10.411  0.00  0.00    +0.038 A 
ATOM     11  C   UNL     1     -13.899  -6.792 -11.413  0.00  0.00    +0.047 A 
ATOM     12  C   UNL     1     -14.606  -6.763 -12.684  0.00  0.00    +0.035 A 
ATOM     32  C   UNL     1     -15.562  -5.728 -12.902  0.00  0.00    +0.024 A 
ATOM     33  C   UNL     1     -15.831  -4.733 -11.894  0.00  0.00    +0.007 A 
ATOM     34  C   UNL     1     -15.138  -4.758 -10.638  0.00  0.00    -0.029 A 
ATOM     35  C   UNL     1     -15.471  -3.669  -9.591  0.00  0.00    +0.045 C 
ENDROOT
BRANCH  10   9
ATOM      4  C   UNL     1     -10.455  -4.618  -7.594  0.00  0.00    +0.077 A 
ATOM      5  C   UNL     1      -9.872  -3.791  -8.611  0.00  0.00    +0.048 A 
ATOM      6  C   UNL     1     -10.550  -3.708  -9.848  0.00  0.00    +0.116 A 
ATOM      7  N   UNL     1     -11.724  -4.404 -10.041  0.00  0.00    -0.223 NA
ATOM      8  C   UNL     1     -12.259  -5.193  -9.040  0.00  0.00    +0.220 A 
ATOM      9  N   UNL     1     -13.442  -5.895  -9.210  0.00  0.00    -0.283 N 
ATOM     36  H   UNL     1     -13.799  -6.473  -8.449  0.00  0.00    +0.155 HD
ATOM     37  N   UNL     1     -11.629  -5.291  -7.851  0.00  0.00    -0.214 NA
BRANCH   4   3
ATOM      1  C   UNL     1      -8.433  -6.056  -4.570  0.00  0.00    +0.020 A 
ATOM      2  C   UNL     1      -8.984  -5.922  -5.899  0.00  0.00    +0.013 A 
ATOM      3  C   UNL     1      -9.858  -4.805  -6.234  0.00  0.00    +0.019 A 
ATOM     38  C   UNL     1     -10.157  -3.833  -5.193  0.00  0.00    +0.120 A 
ATOM     39  N   UNL     1      -9.614  -3.989  -3.922  0.00  0.00    -0.263 NA
ATOM     40  C   UNL     1      -8.772  -5.061  -3.587  0.00  0.00    +0.111 A 
ENDBRANCH   4   3
ENDBRANCH  10   9
BRANCH  12  13
ATOM     13  N   UNL     1     -14.399  -7.728 -13.735  0.00  0.00    -0.281 N 
ATOM     14  C   UNL     1     -13.572  -7.618 -14.841  0.00  0.00    +0.248 C 
ATOM     30  O   UNL     1     -13.043  -6.579 -15.208  0.00  0.00    -0.270 OA
ATOM     31  H   UNL     1     -14.926  -8.598 -13.655  0.00  0.00    +0.155 HD
BRANCH  14  15
ATOM     15  C   UNL     1     -13.305  -8.834 -15.667  0.00  0.00    +0.037 A 
ATOM     16  C   UNL     1     -12.830 -10.078 -15.056  0.00  0.00    +0.013 A 
ATOM     17  C   UNL     1     -12.564 -11.232 -15.878  0.00  0.00    +0.005 A 
ATOM     18  C   UNL     1     -12.773 -11.147 -17.321  0.00  0.00    -0.033 A 
ATOM     28  C   UNL     1     -13.250  -9.902 -17.901  0.00  0.00    +0.005 A 
ATOM     29  C   UNL     1     -13.511  -8.769 -17.098  0.00  0.00    +0.013 A 
BRANCH  18  19
ATOM     19  C   UNL     1     -12.495 -12.322 -18.278  0.00  0.00    +0.119 C 
BRANCH  19  20
ATOM     20  N   UNL     1     -13.334 -13.547 -18.119  0.00  0.00    -0.302 NA
ATOM     21  C   UNL     1     -14.682 -13.238 -17.459  0.00  0.00    +0.066 C 
ATOM     22  C   UNL     1     -15.556 -14.527 -17.322  0.00  0.00    -0.064 C 
ATOM     23  N   UNL     1     -14.788 -15.578 -16.519  0.00  0.00    +0.379 N 
ATOM     24  C   UNL     1     -15.630 -16.769 -16.338  0.00  0.00    -0.096 C 
ATOM     25  H   UNL     1     -14.585 -15.150 -15.509  0.00  0.00    -0.082 HD
ATOM     26  C   UNL     1     -13.446 -15.888 -17.166  0.00  0.00    -0.064 C 
ATOM     27  C   UNL     1     -12.597 -14.596 -17.325  0.00  0.00    +0.066 C 
ENDBRANCH  19  20
ENDBRANCH  18  19
ENDBRANCH  14  15
ENDBRANCH  12  13
TORSDOF 6
ENDMDL
MODEL 5
REMARK VINA RESULT:      -8.8      6.863     12.539
REMARK  Name = C:\Users\Docking\Desktop\test protocol\1iep_ligandH.pdb
REMARK  8 active torsions:
REMARK  status: ('A' for Active; 'I' for Inactive)
REMARK    1  A    between atoms: _5  and  _11
REMARK    2  A    between atoms: _19  and  _21
REMARK    3  A    between atoms: _22  and  _66
REMARK    4  A    between atoms: _27  and  _30
REMARK    5  A    between atoms: _32  and  _33
REMARK    6  A    between atoms: _38  and  _43
REMARK    7  A    between atoms: _43  and  _46
REMARK    8  A    between atoms: _53  and  _55
REMARK                            x       y       z     vdW  Elec       q    Type
REMARK                         _______ _______ _______ _____ _____    ______ ____
ROOT
ATOM     10  C   UNL     1     -13.247   0.538 -16.486  0.00  0.00    +0.038 A 
ATOM     11  C   UNL     1     -14.592   0.750 -16.088  0.00  0.00    +0.047 A 
ATOM     12  C   UNL     1     -14.950   0.877 -14.684  0.00  0.00    +0.035 A 
ATOM     32  C   UNL     1     -13.912   0.787 -13.711  0.00  0.00    +0.024 A 
ATOM     33  C   UNL     1     -12.540   0.571 -14.098  0.00  0.00    +0.007 A 
ATOM     34  C   UNL     1     -12.181   0.442 -15.481  0.00  0.00    -0.029 A 
ATOM     35  C   UNL     1     -10.695   0.204 -15.838  0.00  0.00    +0.045 C 
ENDROOT
BRANCH  10   9
ATOM      4  C   UNL     1     -12.919  -2.008 -20.542  0.00  0.00    +0.077 A 
ATOM      5  C   UNL     1     -13.329  -3.216 -19.886  0.00  0.00    +0.048 A 
ATOM      6  C   UNL     1     -13.608  -3.141 -18.503  0.00  0.00    +0.116 A 
ATOM      7  N   UNL     1     -13.483  -1.942 -17.836  0.00  0.00    -0.223 NA
ATOM      8  C   UNL     1     -13.084  -0.796 -18.498  0.00  0.00    +0.220 A 
ATOM      9  N   UNL     1     -12.960   0.422 -17.848  0.00  0.00    -0.283 N 
ATOM     36  H   UNL     1     -12.655   1.244 -18.370  0.00  0.00    +0.155 HD
ATOM     37  N   UNL     1     -12.810  -0.841 -19.818  0.00  0.00    -0.214 NA
BRANCH   4   3
ATOM      1  C   UNL     1     -12.856  -0.916 -24.298  0.00  0.00    +0.020 A 
ATOM      2  C   UNL     1     -13.207  -0.955 -22.897  0.00  0.00    +0.013 A 
ATOM      3  C   UNL     1     -12.592  -1.925 -22.001  0.00  0.00    +0.019 A 
ATOM     38  C   UNL     1     -11.616  -2.850 -22.558  0.00  0.00    +0.120 A 
ATOM     39  N   UNL     1     -11.298  -2.790 -23.911  0.00  0.00    -0.263 NA
ATOM     40  C   UNL     1     -11.886  -1.862 -24.784  0.00  0.00    +0.111 A 
ENDBRANCH   4   3
ENDBRANCH  10   9
BRANCH  12  13
ATOM     13  N   UNL     1     -16.299   1.085 -14.220  0.00  0.00    -0.281 N 
ATOM     14  C   UNL     1     -17.145   2.144 -14.508  0.00  0.00    +0.248 C 
ATOM     30  O   UNL     1     -16.792   3.186 -15.039  0.00  0.00    -0.270 OA
ATOM     31  H   UNL     1     -16.677   0.364 -13.605  0.00  0.00    +0.155 HD
BRANCH  14  15
ATOM     15  C   UNL     1     -18.589   2.035 -14.138  0.00  0.00    +0.037 A 
ATOM     16  C   UNL     1     -19.170   0.760 -13.710  0.00  0.00    +0.013 A 
ATOM     17  C   UNL     1     -20.570   0.680 -13.375  0.00  0.00    +0.005 A 
ATOM     18  C   UNL     1     -21.398   1.880 -13.466  0.00  0.00    -0.033 A 
ATOM     28  C   UNL     1     -20.795   3.133 -13.888  0.00  0.00    +0.005 A 
ATOM     29  C   UNL     1     -19.424   3.215 -14.218  0.00  0.00    +0.013 A 
BRANCH  18  19
ATOM     19  C   UNL     1     -22.906   1.881 -13.148  0.00  0.00    +0.119 C 
BRANCH  19  20
ATOM     20  N   UNL     1     -23.475   0.648 -12.527  0.00  0.00    -0.302 NA
ATOM     21  C   UNL     1     -24.338  -0.145 -13.512  0.00  0.00    +0.066 C 
ATOM     22  C   UNL     1     -24.907  -1.443 -12.852  0.00  0.00    -0.064 C 
ATOM     23  N   UNL     1     -25.712  -1.068 -11.607  0.00  0.00    +0.379 N 
ATOM     24  C   UNL     1     -26.297  -2.282 -11.017  0.00  0.00    -0.096 C 
ATOM     25  H   UNL     1     -26.552  -0.412 -11.933  0.00  0.00    -0.082 HD
ATOM     26  C   UNL     1     -24.862  -0.277 -10.623  0.00  0.00    -0.064 C 
ATOM     27  C   UNL     1     -24.278   0.996 -11.297  0.00  0.00    +0.066 C 
ENDBRANCH  19  20
ENDBRANCH  18  19
ENDBRANCH  14  15
ENDBRANCH  12  13
TORSDOF 6
ENDMDL
