MODEL 1
REMARK VINA RESULT:      -9.4      0.000      0.000
REMARK  Name = C:\Users\Docking\Desktop\test protocol\1iep_ligandH.pdb
REMARK  8 active torsions:
REMARK  status: ('A' for Active; 'I' for Inactive)
REMARK    1  A    between atoms: _5  and  _11
REMARK    2  A    between atoms: _19  and  _21
REMARK    3  A    between atoms: _22  and  _66
REMARK    4  A    between atoms: _27  and  _30
REMARK    5  A    between atoms: _32  and  _33
REMARK    6  A    between atoms: _38  and  _43
REMARK    7  A    between atoms: _43  and  _46
REMARK    8  A    between atoms: _53  and  _55
REMARK                            x       y       z     vdW  Elec       q    Type
REMARK                         _______ _______ _______ _____ _____    ______ ____
ROOT
ATOM     10  C   UNL     1      52.813  -3.996 -13.391  0.00  0.00    +0.038 A 
ATOM     11  C   UNL     1      53.430  -2.720 -13.322  0.00  0.00    +0.047 A 
ATOM     12  C   UNL     1      54.858  -2.562 -13.547  0.00  0.00    +0.035 A 
ATOM     32  C   UNL     1      55.628  -3.725 -13.843  0.00  0.00    +0.024 A 
ATOM     33  C   UNL     1      55.018  -5.029 -13.917  0.00  0.00    +0.007 A 
ATOM     34  C   UNL     1      53.609  -5.191 -13.693  0.00  0.00    -0.029 A 
ATOM     35  C   UNL     1      53.009  -6.614 -13.778  0.00  0.00    +0.045 C 
ENDROOT
BRANCH  10   9
ATOM      4  C   UNL     1      48.284  -2.654 -14.243  0.00  0.00    +0.077 A 
ATOM      5  C   UNL     1      48.694  -1.664 -15.196  0.00  0.00    +0.048 A 
ATOM      6  C   UNL     1      50.080  -1.526 -15.433  0.00  0.00    +0.116 A 
ATOM      7  N   UNL     1      50.980  -2.325 -14.762  0.00  0.00    -0.223 NA
ATOM      8  C   UNL     1      50.551  -3.270 -13.848  0.00  0.00    +0.220 A 
ATOM      9  N   UNL     1      51.438  -4.090 -13.167  0.00  0.00    -0.283 N 
ATOM     36  H   UNL     1      51.082  -4.769 -12.495  0.00  0.00    +0.155 HD
ATOM     37  N   UNL     1      49.233  -3.419 -13.602  0.00  0.00    -0.214 NA
BRANCH   4   3
ATOM      1  C   UNL     1      45.008  -4.394 -13.001  0.00  0.00    +0.020 A 
ATOM      2  C   UNL     1      46.400  -4.188 -13.329  0.00  0.00    +0.013 A 
ATOM      3  C   UNL     1      46.854  -2.921 -13.886  0.00  0.00    +0.019 A 
ATOM     38  C   UNL     1      45.867  -1.873 -14.100  0.00  0.00    +0.120 A 
ATOM     39  N   UNL     1      44.533  -2.101 -13.777  0.00  0.00    -0.263 NA
ATOM     40  C   UNL     1      44.084  -3.317 -13.242  0.00  0.00    +0.111 A 
ENDBRANCH   4   3
ENDBRANCH  10   9
BRANCH  12  13
ATOM     13  N   UNL     1      55.541  -1.294 -13.482  0.00  0.00    -0.281 N 
ATOM     14  C   UNL     1      55.224  -0.121 -14.147  0.00  0.00    +0.248 C 
ATOM     30  O   UNL     1      54.426  -0.043 -15.069  0.00  0.00    -0.270 OA
ATOM     31  H   UNL     1      56.358  -1.257 -12.872  0.00  0.00    +0.155 HD
BRANCH  14  15
ATOM     15  C   UNL     1      55.903   1.146 -13.738  0.00  0.00    +0.037 A 
ATOM     16  C   UNL     1      55.779   2.367 -14.539  0.00  0.00    +0.013 A 
ATOM     17  C   UNL     1      56.458   3.571 -14.132  0.00  0.00    +0.005 A 
ATOM     18  C   UNL     1      57.266   3.561 -12.914  0.00  0.00    -0.033 A 
ATOM     28  C   UNL     1      57.367   2.338 -12.136  0.00  0.00    +0.005 A 
ATOM     29  C   UNL     1      56.704   1.155 -12.533  0.00  0.00    +0.013 A 
BRANCH  18  19
ATOM     19  C   UNL     1      58.043   4.794 -12.415  0.00  0.00    +0.119 C 
BRANCH  19  20
ATOM     20  N   UNL     1      59.471   4.593 -12.028  0.00  0.00    -0.302 NA
ATOM     21  C   UNL     1      60.081   5.853 -11.409  0.00  0.00    +0.066 C 
ATOM     22  C   UNL     1      61.569   5.617 -10.989  0.00  0.00    -0.064 C 
ATOM     23  N   UNL     1      62.375   5.169 -12.209  0.00  0.00    +0.379 N 
ATOM     24  C   UNL     1      63.786   5.003 -11.831  0.00  0.00    -0.096 C 
ATOM     25  H   UNL     1      62.322   5.984 -12.968  0.00  0.00    -0.082 HD
ATOM     26  C   UNL     1      61.773   3.918 -12.833  0.00  0.00    -0.064 C 
ATOM     27  C   UNL     1      60.286   4.153 -13.220  0.00  0.00    +0.066 C 
ENDBRANCH  19  20
ENDBRANCH  18  19
ENDBRANCH  14  15
ENDBRANCH  12  13
TORSDOF 6
ENDMDL
MODEL 2
REMARK VINA RESULT:      -8.9      2.820      4.200
REMARK  Name = C:\Users\Docking\Desktop\test protocol\1iep_ligandH.pdb
REMARK  8 active torsions:
REMARK  status: ('A' for Active; 'I' for Inactive)
REMARK    1  A    between atoms: _5  and  _11
REMARK    2  A    between atoms: _19  and  _21
REMARK    3  A    between atoms: _22  and  _66
REMARK    4  A    between atoms: _27  and  _30
REMARK    5  A    between atoms: _32  and  _33
REMARK    6  A    between atoms: _38  and  _43
REMARK    7  A    between atoms: _43  and  _46
REMARK    8  A    between atoms: _53  and  _55
REMARK                            x       y       z     vdW  Elec       q    Type
REMARK                         _______ _______ _______ _____ _____    ______ ____
ROOT
ATOM     10  C   UNL     1      53.149  -0.086 -16.397  0.00  0.00    +0.038 A 
ATOM     11  C   UNL     1      53.763   0.985 -15.699  0.00  0.00    +0.047 A 
ATOM     12  C   UNL     1      55.171   1.299 -15.889  0.00  0.00    +0.035 A 
ATOM     32  C   UNL     1      55.923   0.502 -16.801  0.00  0.00    +0.024 A 
ATOM     33  C   UNL     1      55.315  -0.591 -17.518  0.00  0.00    +0.007 A 
ATOM     34  C   UNL     1      53.928  -0.907 -17.332  0.00  0.00    -0.029 A 
ATOM     35  C   UNL     1      53.330  -2.094 -18.123  0.00  0.00    +0.045 C 
ENDROOT
BRANCH  10   9
ATOM      4  C   UNL     1      49.591  -2.581 -14.360  0.00  0.00    +0.077 A 
ATOM      5  C   UNL     1      50.509  -3.465 -13.701  0.00  0.00    +0.048 A 
ATOM      6  C   UNL     1      51.888  -3.248 -13.918  0.00  0.00    +0.116 A 
ATOM      7  N   UNL     1      52.307  -2.221 -14.735  0.00  0.00    -0.223 NA
ATOM      8  C   UNL     1      51.395  -1.387 -15.357  0.00  0.00    +0.220 A 
ATOM      9  N   UNL     1      51.794  -0.342 -16.176  0.00  0.00    -0.283 N 
ATOM     36  H   UNL     1      51.091   0.246 -16.622  0.00  0.00    +0.155 HD
ATOM     37  N   UNL     1      50.073  -1.574 -15.166  0.00  0.00    -0.214 NA
BRANCH   4   3
ATOM      1  C   UNL     1      45.987  -3.931 -13.658  0.00  0.00    +0.020 A 
ATOM      2  C   UNL     1      47.427  -3.888 -13.769  0.00  0.00    +0.013 A 
ATOM      3  C   UNL     1      48.103  -2.680 -14.227  0.00  0.00    +0.019 A 
ATOM     38  C   UNL     1      47.286  -1.524 -14.565  0.00  0.00    +0.120 A 
ATOM     39  N   UNL     1      45.902  -1.595 -14.449  0.00  0.00    -0.263 NA
ATOM     40  C   UNL     1      45.240  -2.753 -14.012  0.00  0.00    +0.111 A 
ENDBRANCH   4   3
ENDBRANCH  10   9
BRANCH  12  13
ATOM     13  N   UNL     1      55.851   2.368 -15.202  0.00  0.00    -0.281 N 
ATOM     14  C   UNL     1      56.532   2.309 -13.997  0.00  0.00    +0.248 C 
ATOM     30  O   UNL     1      56.479   1.369 -13.218  0.00  0.00    -0.270 OA
ATOM     31  H   UNL     1      55.827   3.280 -15.659  0.00  0.00    +0.155 HD
BRANCH  14  15
ATOM     15  C   UNL     1      57.386   3.468 -13.593  0.00  0.00    +0.037 A 
ATOM     16  C   UNL     1      58.051   3.503 -12.288  0.00  0.00    +0.013 A 
ATOM     17  C   UNL     1      58.855   4.640 -11.916  0.00  0.00    +0.005 A 
ATOM     18  C   UNL     1      58.998   5.753 -12.853  0.00  0.00    -0.033 A 
ATOM     28  C   UNL     1      58.331   5.690 -14.143  0.00  0.00    +0.005 A 
ATOM     29  C   UNL     1      57.542   4.577 -14.510  0.00  0.00    +0.013 A 
BRANCH  18  19
ATOM     19  C   UNL     1      59.819   7.016 -12.531  0.00  0.00    +0.119 C 
BRANCH  19  20
ATOM     20  N   UNL     1      59.061   8.276 -12.273  0.00  0.00    -0.302 NA
ATOM     21  C   UNL     1      59.959   9.381 -11.708  0.00  0.00    +0.066 C 
ATOM     22  C   UNL     1      59.154  10.699 -11.465  0.00  0.00    -0.064 C 
ATOM     23  N   UNL     1      57.986  10.414 -10.520  0.00  0.00    +0.379 N 
ATOM     24  C   UNL     1      57.262  11.663 -10.243  0.00  0.00    -0.096 C 
ATOM     25  H   UNL     1      58.412  10.049  -9.556  0.00  0.00    -0.082 HD
ATOM     26  C   UNL     1      57.090   9.315 -11.073  0.00  0.00    -0.064 C 
ATOM     27  C   UNL     1      57.905   8.018 -11.338  0.00  0.00    +0.066 C 
ENDBRANCH  19  20
ENDBRANCH  18  19
ENDBRANCH  14  15
ENDBRANCH  12  13
TORSDOF 6
ENDMDL
MODEL 3
REMARK VINA RESULT:      -8.9      2.161      2.984
REMARK  Name = C:\Users\Docking\Desktop\test protocol\1iep_ligandH.pdb
REMARK  8 active torsions:
REMARK  status: ('A' for Active; 'I' for Inactive)
REMARK    1  A    between atoms: _5  and  _11
REMARK    2  A    between atoms: _19  and  _21
REMARK    3  A    between atoms: _22  and  _66
REMARK    4  A    between atoms: _27  and  _30
REMARK    5  A    between atoms: _32  and  _33
REMARK    6  A    between atoms: _38  and  _43
REMARK    7  A    between atoms: _43  and  _46
REMARK    8  A    between atoms: _53  and  _55
REMARK                            x       y       z     vdW  Elec       q    Type
REMARK                         _______ _______ _______ _____ _____    ______ ____
ROOT
ATOM     10  C   UNL     1      53.356  -3.059 -13.691  0.00  0.00    +0.038 A 
ATOM     11  C   UNL     1      53.814  -1.724 -13.543  0.00  0.00    +0.047 A 
ATOM     12  C   UNL     1      55.204  -1.374 -13.791  0.00  0.00    +0.035 A 
ATOM     32  C   UNL     1      56.100  -2.407 -14.190  0.00  0.00    +0.024 A 
ATOM     33  C   UNL     1      55.653  -3.769 -14.344  0.00  0.00    +0.007 A 
ATOM     34  C   UNL     1      54.283  -4.121 -14.099  0.00  0.00    -0.029 A 
ATOM     35  C   UNL     1      53.860  -5.598 -14.274  0.00  0.00    +0.045 C 
ENDROOT
BRANCH  10   9
ATOM      4  C   UNL     1      48.671  -2.356 -14.463  0.00  0.00    +0.077 A 
ATOM      5  C   UNL     1      48.924  -1.324 -15.427  0.00  0.00    +0.048 A 
ATOM      6  C   UNL     1      50.274  -0.999 -15.690  0.00  0.00    +0.116 A 
ATOM      7  N   UNL     1      51.287  -1.663 -15.033  0.00  0.00    -0.223 NA
ATOM      8  C   UNL     1      51.008  -2.653 -14.108  0.00  0.00    +0.220 A 
ATOM      9  N   UNL     1      52.011  -3.339 -13.441  0.00  0.00    -0.283 N 
ATOM     36  H   UNL     1      51.764  -4.057 -12.761  0.00  0.00    +0.155 HD
ATOM     37  N   UNL     1      49.727  -2.980 -13.838  0.00  0.00    -0.214 NA
BRANCH   4   3
ATOM      1  C   UNL     1      45.684  -4.535 -13.188  0.00  0.00    +0.020 A 
ATOM      2  C   UNL     1      47.028  -4.142 -13.543  0.00  0.00    +0.013 A 
ATOM      3  C   UNL     1      47.299  -2.814 -14.080  0.00  0.00    +0.019 A 
ATOM     38  C   UNL     1      46.178  -1.900 -14.245  0.00  0.00    +0.120 A 
ATOM     39  N   UNL     1      44.894  -2.307 -13.895  0.00  0.00    -0.263 NA
ATOM     40  C   UNL     1      44.622  -3.583 -13.380  0.00  0.00    +0.111 A 
ENDBRANCH   4   3
ENDBRANCH  10   9
BRANCH  12  13
ATOM     13  N   UNL     1      55.727  -0.038 -13.649  0.00  0.00    -0.281 N 
ATOM     14  C   UNL     1      56.434   0.491 -12.581  0.00  0.00    +0.248 C 
ATOM     30  O   UNL     1      56.539  -0.045 -11.488  0.00  0.00    -0.270 OA
ATOM     31  H   UNL     1      55.556   0.595 -14.430  0.00  0.00    +0.155 HD
BRANCH  14  15
ATOM     15  C   UNL     1      57.110   1.814 -12.747  0.00  0.00    +0.037 A 
ATOM     16  C   UNL     1      58.066   2.308 -11.752  0.00  0.00    +0.013 A 
ATOM     17  C   UNL     1      58.691   3.595 -11.928  0.00  0.00    +0.005 A 
ATOM     18  C   UNL     1      58.363   4.396 -13.105  0.00  0.00    -0.033 A 
ATOM     28  C   UNL     1      57.415   3.879 -14.078  0.00  0.00    +0.005 A 
ATOM     29  C   UNL     1      56.799   2.619 -13.909  0.00  0.00    +0.013 A 
BRANCH  18  19
ATOM     19  C   UNL     1      58.966   5.790 -13.363  0.00  0.00    +0.119 C 
BRANCH  19  20
ATOM     20  N   UNL     1      58.120   6.974 -13.025  0.00  0.00    -0.302 NA
ATOM     21  C   UNL     1      58.336   8.132 -14.003  0.00  0.00    +0.066 C 
ATOM     22  C   UNL     1      57.428   9.354 -13.648  0.00  0.00    -0.064 C 
ATOM     23  N   UNL     1      57.713   9.798 -12.212  0.00  0.00    +0.379 N 
ATOM     24  C   UNL     1      56.902  10.982 -11.895  0.00  0.00    -0.096 C 
ATOM     25  H   UNL     1      58.785  10.097 -12.158  0.00  0.00    -0.082 HD
ATOM     26  C   UNL     1      57.503   8.651 -11.233  0.00  0.00    -0.064 C 
ATOM     27  C   UNL     1      58.389   7.432 -11.612  0.00  0.00    +0.066 C 
ENDBRANCH  19  20
ENDBRANCH  18  19
ENDBRANCH  14  15
ENDBRANCH  12  13
TORSDOF 6
ENDMDL
MODEL 4
REMARK VINA RESULT:      -8.9      2.085     12.512
REMARK  Name = C:\Users\Docking\Desktop\test protocol\1iep_ligandH.pdb
REMARK  8 active torsions:
REMARK  status: ('A' for Active; 'I' for Inactive)
REMARK    1  A    between atoms: _5  and  _11
REMARK    2  A    between atoms: _19  and  _21
REMARK    3  A    between atoms: _22  and  _66
REMARK    4  A    between atoms: _27  and  _30
REMARK    5  A    between atoms: _32  and  _33
REMARK    6  A    between atoms: _38  and  _43
REMARK    7  A    between atoms: _43  and  _46
REMARK    8  A    between atoms: _53  and  _55
REMARK                            x       y       z     vdW  Elec       q    Type
REMARK                         _______ _______ _______ _____ _____    ______ ____
ROOT
ATOM     10  C   UNL     1      56.425  -0.674 -15.451  0.00  0.00    +0.038 A 
ATOM     11  C   UNL     1      55.017  -0.840 -15.422  0.00  0.00    +0.047 A 
ATOM     12  C   UNL     1      54.410  -2.153 -15.578  0.00  0.00    +0.035 A 
ATOM     32  C   UNL     1      55.269  -3.276 -15.758  0.00  0.00    +0.024 A 
ATOM     33  C   UNL     1      56.702  -3.126 -15.791  0.00  0.00    +0.007 A 
ATOM     34  C   UNL     1      57.306  -1.833 -15.640  0.00  0.00    -0.029 A 
ATOM     35  C   UNL     1      58.848  -1.730 -15.690  0.00  0.00    +0.045 C 
ENDROOT
BRANCH  10   9
ATOM      4  C   UNL     1      58.143   2.899 -12.745  0.00  0.00    +0.077 A 
ATOM      5  C   UNL     1      57.946   2.155 -11.534  0.00  0.00    +0.048 A 
ATOM      6  C   UNL     1      57.394   0.860 -11.650  0.00  0.00    +0.116 A 
ATOM      7  N   UNL     1      57.067   0.356 -12.890  0.00  0.00    -0.223 NA
ATOM      8  C   UNL     1      57.268   1.100 -14.038  0.00  0.00    +0.220 A 
ATOM      9  N   UNL     1      56.954   0.610 -15.297  0.00  0.00    -0.283 N 
ATOM     36  H   UNL     1      57.110   1.193 -16.118  0.00  0.00    +0.155 HD
ATOM     37  N   UNL     1      57.793   2.340 -13.954  0.00  0.00    -0.214 NA
BRANCH   4   3
ATOM      1  C   UNL     1      58.592   6.769 -12.400  0.00  0.00    +0.020 A 
ATOM      2  C   UNL     1      57.989   5.458 -12.339  0.00  0.00    +0.013 A 
ATOM      3  C   UNL     1      58.721   4.279 -12.786  0.00  0.00    +0.019 A 
ATOM     38  C   UNL     1      60.072   4.464 -13.293  0.00  0.00    +0.120 A 
ATOM     39  N   UNL     1      60.627   5.739 -13.341  0.00  0.00    -0.263 NA
ATOM     40  C   UNL     1      59.932   6.880 -12.915  0.00  0.00    +0.111 A 
ENDBRANCH   4   3
ENDBRANCH  10   9
BRANCH  12  13
ATOM     13  N   UNL     1      52.987  -2.381 -15.565  0.00  0.00    -0.281 N 
ATOM     14  C   UNL     1      52.210  -2.856 -14.521  0.00  0.00    +0.248 C 
ATOM     30  O   UNL     1      52.656  -3.361 -13.502  0.00  0.00    -0.270 OA
ATOM     31  H   UNL     1      52.492  -2.167 -16.431  0.00  0.00    +0.155 HD
BRANCH  14  15
ATOM     15  C   UNL     1      50.722  -2.770 -14.632  0.00  0.00    +0.037 A 
ATOM     16  C   UNL     1      50.062  -1.541 -15.081  0.00  0.00    +0.013 A 
ATOM     17  C   UNL     1      48.624  -1.480 -15.163  0.00  0.00    +0.005 A 
ATOM     18  C   UNL     1      47.836  -2.654 -14.795  0.00  0.00    -0.033 A 
ATOM     28  C   UNL     1      48.516  -3.862 -14.358  0.00  0.00    +0.005 A 
ATOM     29  C   UNL     1      49.925  -3.925 -14.276  0.00  0.00    +0.013 A 
BRANCH  18  19
ATOM     19  C   UNL     1      46.296  -2.672 -14.832  0.00  0.00    +0.119 C 
BRANCH  19  20
ATOM     20  N   UNL     1      45.587  -3.086 -13.584  0.00  0.00    -0.302 NA
ATOM     21  C   UNL     1      45.719  -4.588 -13.320  0.00  0.00    +0.066 C 
ATOM     22  C   UNL     1      44.991  -5.000 -11.999  0.00  0.00    -0.064 C 
ATOM     23  N   UNL     1      43.519  -4.592 -12.083  0.00  0.00    +0.379 N 
ATOM     24  C   UNL     1      42.819  -5.030 -10.867  0.00  0.00    -0.096 C 
ATOM     25  H   UNL     1      43.068  -5.133 -12.947  0.00  0.00    -0.082 HD
ATOM     26  C   UNL     1      43.379  -3.100 -12.348  0.00  0.00    -0.064 C 
ATOM     27  C   UNL     1      44.131  -2.696 -13.647  0.00  0.00    +0.066 C 
ENDBRANCH  19  20
ENDBRANCH  18  19
ENDBRANCH  14  15
ENDBRANCH  12  13
TORSDOF 6
ENDMDL
MODEL 5
REMARK VINA RESULT:      -8.7      7.579     10.196
REMARK  Name = C:\Users\Docking\Desktop\test protocol\1iep_ligandH.pdb
REMARK  8 active torsions:
REMARK  status: ('A' for Active; 'I' for Inactive)
REMARK    1  A    between atoms: _5  and  _11
REMARK    2  A    between atoms: _19  and  _21
REMARK    3  A    between atoms: _22  and  _66
REMARK    4  A    between atoms: _27  and  _30
REMARK    5  A    between atoms: _32  and  _33
REMARK    6  A    between atoms: _38  and  _43
REMARK    7  A    between atoms: _43  and  _46
REMARK    8  A    between atoms: _53  and  _55
REMARK                            x       y       z     vdW  Elec       q    Type
REMARK                         _______ _______ _______ _____ _____    ______ ____
ROOT
ATOM     10  C   UNL     1      53.105  -7.842 -12.858  0.00  0.00    +0.038 A 
ATOM     11  C   UNL     1      53.740  -7.722 -11.596  0.00  0.00    +0.047 A 
ATOM     12  C   UNL     1      54.853  -8.584 -11.228  0.00  0.00    +0.035 A 
ATOM     32  C   UNL     1      55.295  -9.555 -12.173  0.00  0.00    +0.024 A 
ATOM     33  C   UNL     1      54.661  -9.691 -13.460  0.00  0.00    +0.007 A 
ATOM     34  C   UNL     1      53.561  -8.846 -13.827  0.00  0.00    -0.029 A 
ATOM     35  C   UNL     1      52.915  -9.040 -15.219  0.00  0.00    +0.045 C 
ENDROOT
BRANCH  10   9
ATOM      4  C   UNL     1      51.345  -3.603 -14.263  0.00  0.00    +0.077 A 
ATOM      5  C   UNL     1      52.656  -3.032 -14.382  0.00  0.00    +0.048 A 
ATOM      6  C   UNL     1      53.756  -3.860 -14.066  0.00  0.00    +0.116 A 
ATOM      7  N   UNL     1      53.549  -5.161 -13.662  0.00  0.00    -0.223 NA
ATOM      8  C   UNL     1      52.272  -5.681 -13.556  0.00  0.00    +0.220 A 
ATOM      9  N   UNL     1      52.041  -6.989 -13.159  0.00  0.00    -0.283 N 
ATOM     36  H   UNL     1      51.083  -7.332 -13.086  0.00  0.00    +0.155 HD
ATOM     37  N   UNL     1      51.205  -4.909 -13.850  0.00  0.00    -0.214 NA
BRANCH   4   3
ATOM      1  C   UNL     1      47.579  -2.567 -14.473  0.00  0.00    +0.020 A 
ATOM      2  C   UNL     1      48.766  -3.327 -14.157  0.00  0.00    +0.013 A 
ATOM      3  C   UNL     1      50.083  -2.855 -14.564  0.00  0.00    +0.019 A 
ATOM     38  C   UNL     1      50.166  -1.600 -15.295  0.00  0.00    +0.120 A 
ATOM     39  N   UNL     1      49.005  -0.890 -15.587  0.00  0.00    -0.263 NA
ATOM     40  C   UNL     1      47.732  -1.335 -15.201  0.00  0.00    +0.111 A 
ENDBRANCH   4   3
ENDBRANCH  10   9
BRANCH  12  13
ATOM     13  N   UNL     1      55.531  -8.514  -9.958  0.00  0.00    -0.281 N 
ATOM     14  C   UNL     1      55.055  -8.902  -8.716  0.00  0.00    +0.248 C 
ATOM     30  O   UNL     1      53.888  -9.173  -8.477  0.00  0.00    -0.270 OA
ATOM     31  H   UNL     1      56.476  -8.132  -9.976  0.00  0.00    +0.155 HD
BRANCH  14  15
ATOM     15  C   UNL     1      56.012  -8.989  -7.571  0.00  0.00    +0.037 A 
ATOM     16  C   UNL     1      56.858 -10.170  -7.375  0.00  0.00    +0.013 A 
ATOM     17  C   UNL     1      57.760 -10.235  -6.253  0.00  0.00    +0.005 A 
ATOM     18  C   UNL     1      57.822  -9.114  -5.318  0.00  0.00    -0.033 A 
ATOM     28  C   UNL     1      56.975  -7.953  -5.539  0.00  0.00    +0.005 A 
ATOM     29  C   UNL     1      56.089  -7.886  -6.637  0.00  0.00    +0.013 A 
BRANCH  18  19
ATOM     19  C   UNL     1      58.740  -9.106  -4.081  0.00  0.00    +0.119 C 
BRANCH  19  20
ATOM     20  N   UNL     1      60.208  -8.981  -4.320  0.00  0.00    -0.302 NA
ATOM     21  C   UNL     1      60.957 -10.275  -3.989  0.00  0.00    +0.066 C 
ATOM     22  C   UNL     1      62.489 -10.134  -4.266  0.00  0.00    -0.064 C 
ATOM     23  N   UNL     1      63.046  -8.963  -3.454  0.00  0.00    +0.379 N 
ATOM     24  C   UNL     1      64.497  -8.864  -3.668  0.00  0.00    -0.096 C 
ATOM     25  H   UNL     1      62.877  -9.189  -2.376  0.00  0.00    -0.082 HD
ATOM     26  C   UNL     1      62.305  -7.673  -3.776  0.00  0.00    -0.064 C 
ATOM     27  C   UNL     1      60.780  -7.833  -3.525  0.00  0.00    +0.066 C 
ENDBRANCH  19  20
ENDBRANCH  18  19
ENDBRANCH  14  15
ENDBRANCH  12  13
TORSDOF 6
ENDMDL
