MODEL 1
REMARK VINA RESULT:     -11.5      0.000      0.000
REMARK  Name = C:\Users\Docking\Desktop\test protocol\1iep_ligandH.pdb
REMARK  8 active torsions:
REMARK  status: ('A' for Active; 'I' for Inactive)
REMARK    1  A    between atoms: _5  and  _11
REMARK    2  A    between atoms: _19  and  _21
REMARK    3  A    between atoms: _22  and  _66
REMARK    4  A    between atoms: _27  and  _30
REMARK    5  A    between atoms: _32  and  _33
REMARK    6  A    between atoms: _38  and  _43
REMARK    7  A    between atoms: _43  and  _46
REMARK    8  A    between atoms: _53  and  _55
REMARK                            x       y       z     vdW  Elec       q    Type
REMARK                         _______ _______ _______ _____ _____    ______ ____
ROOT
ATOM     10  C   UNL     1     -23.955  -1.216 -13.309  0.00  0.00    +0.038 A 
ATOM     11  C   UNL     1     -24.269  -1.681 -12.006  0.00  0.00    +0.047 A 
ATOM     12  C   UNL     1     -25.645  -1.938 -11.610  0.00  0.00    +0.035 A 
ATOM     32  C   UNL     1     -26.677  -1.713 -12.568  0.00  0.00    +0.024 A 
ATOM     33  C   UNL     1     -26.375  -1.240 -13.896  0.00  0.00    +0.007 A 
ATOM     34  C   UNL     1     -25.020  -0.983 -14.291  0.00  0.00    -0.029 A 
ATOM     35  C   UNL     1     -24.757  -0.470 -15.727  0.00  0.00    +0.045 C 
ENDROOT
BRANCH  10   9
ATOM      4  C   UNL     1     -20.282   1.713 -14.292  0.00  0.00    +0.077 A 
ATOM      5  C   UNL     1     -21.105   2.882 -14.171  0.00  0.00    +0.048 A 
ATOM      6  C   UNL     1     -22.469   2.686 -13.862  0.00  0.00    +0.116 A 
ATOM      7  N   UNL     1     -22.963   1.411 -13.688  0.00  0.00    -0.223 NA
ATOM      8  C   UNL     1     -22.143   0.305 -13.813  0.00  0.00    +0.220 A 
ATOM      9  N   UNL     1     -22.617  -0.986 -13.635  0.00  0.00    -0.283 N 
ATOM     36  H   UNL     1     -21.981  -1.776 -13.744  0.00  0.00    +0.155 HD
ATOM     37  N   UNL     1     -20.836   0.465 -14.110  0.00  0.00    -0.214 NA
BRANCH   4   3
ATOM      1  C   UNL     1     -16.623   0.658 -15.186  0.00  0.00    +0.020 A 
ATOM      2  C   UNL     1     -18.032   0.561 -14.882  0.00  0.00    +0.013 A 
ATOM      3  C   UNL     1     -18.820   1.757 -14.611  0.00  0.00    +0.019 A 
ATOM     38  C   UNL     1     -18.146   3.046 -14.656  0.00  0.00    +0.120 A 
ATOM     39  N   UNL     1     -16.788   3.109 -14.950  0.00  0.00    -0.263 NA
ATOM     40  C   UNL     1     -16.019   1.964 -15.211  0.00  0.00    +0.111 A 
ENDBRANCH   4   3
ENDBRANCH  10   9
BRANCH  12  13
ATOM     13  N   UNL     1     -26.025  -2.403 -10.299  0.00  0.00    -0.281 N 
ATOM     14  C   UNL     1     -27.018  -1.902  -9.473  0.00  0.00    +0.248 C 
ATOM     30  O   UNL     1     -27.591  -0.837  -9.648  0.00  0.00    -0.270 OA
ATOM     31  H   UNL     1     -25.498  -3.197  -9.936  0.00  0.00    +0.155 HD
BRANCH  14  15
ATOM     15  C   UNL     1     -27.423  -2.692  -8.270  0.00  0.00    +0.037 A 
ATOM     16  C   UNL     1     -27.485  -2.076  -6.942  0.00  0.00    +0.013 A 
ATOM     17  C   UNL     1     -27.862  -2.865  -5.796  0.00  0.00    +0.005 A 
ATOM     18  C   UNL     1     -28.181  -4.279  -5.974  0.00  0.00    -0.033 A 
ATOM     28  C   UNL     1     -28.116  -4.863  -7.303  0.00  0.00    +0.005 A 
ATOM     29  C   UNL     1     -27.746  -4.094  -8.429  0.00  0.00    +0.013 A 
BRANCH  18  19
ATOM     19  C   UNL     1     -28.573  -5.201  -4.804  0.00  0.00    +0.119 C 
BRANCH  19  20
ATOM     20  N   UNL     1     -28.062  -6.604  -4.839  0.00  0.00    -0.302 NA
ATOM     21  C   UNL     1     -28.988  -7.534  -5.628  0.00  0.00    +0.066 C 
ATOM     22  C   UNL     1     -28.427  -8.992  -5.673  0.00  0.00    -0.064 C 
ATOM     23  N   UNL     1     -28.232  -9.506  -4.246  0.00  0.00    +0.379 N 
ATOM     24  C   UNL     1     -27.759 -10.897  -4.285  0.00  0.00    -0.096 C 
ATOM     25  H   UNL     1     -29.229  -9.501  -3.746  0.00  0.00    -0.082 HD
ATOM     26  C   UNL     1     -27.314  -8.585  -3.453  0.00  0.00    -0.064 C 
ATOM     27  C   UNL     1     -27.866  -7.133  -3.439  0.00  0.00    +0.066 C 
ENDBRANCH  19  20
ENDBRANCH  18  19
ENDBRANCH  14  15
ENDBRANCH  12  13
TORSDOF 6
ENDMDL
MODEL 2
REMARK VINA RESULT:     -11.2      2.303     13.176
REMARK  Name = C:\Users\Docking\Desktop\test protocol\1iep_ligandH.pdb
REMARK  8 active torsions:
REMARK  status: ('A' for Active; 'I' for Inactive)
REMARK    1  A    between atoms: _5  and  _11
REMARK    2  A    between atoms: _19  and  _21
REMARK    3  A    between atoms: _22  and  _66
REMARK    4  A    between atoms: _27  and  _30
REMARK    5  A    between atoms: _32  and  _33
REMARK    6  A    between atoms: _38  and  _43
REMARK    7  A    between atoms: _43  and  _46
REMARK    8  A    between atoms: _53  and  _55
REMARK                            x       y       z     vdW  Elec       q    Type
REMARK                         _______ _______ _______ _____ _____    ______ ____
ROOT
ATOM     10  C   UNL     1     -28.583  -3.862  -7.298  0.00  0.00    +0.038 A 
ATOM     11  C   UNL     1     -27.783  -3.582  -8.434  0.00  0.00    +0.047 A 
ATOM     12  C   UNL     1     -27.018  -2.348  -8.531  0.00  0.00    +0.035 A 
ATOM     32  C   UNL     1     -27.090  -1.422  -7.450  0.00  0.00    +0.024 A 
ATOM     33  C   UNL     1     -27.900  -1.690  -6.287  0.00  0.00    +0.007 A 
ATOM     34  C   UNL     1     -28.658  -2.904  -6.187  0.00  0.00    -0.029 A 
ATOM     35  C   UNL     1     -29.514  -3.136  -4.921  0.00  0.00    +0.045 C 
ENDROOT
BRANCH  10   9
ATOM      4  C   UNL     1     -28.969  -8.584  -8.064  0.00  0.00    +0.077 A 
ATOM      5  C   UNL     1     -27.647  -8.662  -8.615  0.00  0.00    +0.048 A 
ATOM      6  C   UNL     1     -26.903  -7.463  -8.691  0.00  0.00    +0.116 A 
ATOM      7  N   UNL     1     -27.451  -6.280  -8.244  0.00  0.00    -0.223 NA
ATOM      8  C   UNL     1     -28.729  -6.239  -7.720  0.00  0.00    +0.220 A 
ATOM      9  N   UNL     1     -29.297  -5.062  -7.258  0.00  0.00    -0.283 N 
ATOM     36  H   UNL     1     -30.246  -5.072  -6.884  0.00  0.00    +0.155 HD
ATOM     37  N   UNL     1     -29.460  -7.370  -7.638  0.00  0.00    -0.214 NA
BRANCH   4   3
ATOM      1  C   UNL     1     -30.370 -12.236  -8.038  0.00  0.00    +0.020 A 
ATOM      2  C   UNL     1     -29.454 -11.130  -8.199  0.00  0.00    +0.013 A 
ATOM      3  C   UNL     1     -29.877  -9.765  -7.914  0.00  0.00    +0.019 A 
ATOM     38  C   UNL     1     -31.244  -9.551  -7.464  0.00  0.00    +0.120 A 
ATOM     39  N   UNL     1     -32.104 -10.635  -7.320  0.00  0.00    -0.263 NA
ATOM     40  C   UNL     1     -31.709 -11.953  -7.593  0.00  0.00    +0.111 A 
ENDBRANCH   4   3
ENDBRANCH  10   9
BRANCH  12  13
ATOM     13  N   UNL     1     -26.194  -2.006  -9.664  0.00  0.00    -0.281 N 
ATOM     14  C   UNL     1     -26.555  -1.290 -10.794  0.00  0.00    +0.248 C 
ATOM     30  O   UNL     1     -27.705  -1.017 -11.101  0.00  0.00    -0.270 OA
ATOM     31  H   UNL     1     -25.228  -2.331  -9.628  0.00  0.00    +0.155 HD
BRANCH  14  15
ATOM     15  C   UNL     1     -25.483  -0.823 -11.725  0.00  0.00    +0.037 A 
ATOM     16  C   UNL     1     -24.456   0.126 -11.286  0.00  0.00    +0.013 A 
ATOM     17  C   UNL     1     -23.444   0.574 -12.209  0.00  0.00    +0.005 A 
ATOM     18  C   UNL     1     -23.452   0.072 -13.581  0.00  0.00    -0.033 A 
ATOM     28  C   UNL     1     -24.480  -0.873 -13.988  0.00  0.00    +0.005 A 
ATOM     29  C   UNL     1     -25.474  -1.313 -13.086  0.00  0.00    +0.013 A 
BRANCH  18  19
ATOM     19  C   UNL     1     -22.424   0.512 -14.639  0.00  0.00    +0.119 C 
BRANCH  19  20
ATOM     20  N   UNL     1     -21.222   1.256 -14.157  0.00  0.00    -0.302 NA
ATOM     21  C   UNL     1     -21.240   2.723 -14.595  0.00  0.00    +0.066 C 
ATOM     22  C   UNL     1     -19.987   3.492 -14.063  0.00  0.00    -0.064 C 
ATOM     23  N   UNL     1     -18.718   2.795 -14.556  0.00  0.00    +0.379 N 
ATOM     24  C   UNL     1     -17.538   3.548 -14.105  0.00  0.00    -0.096 C 
ATOM     25  H   UNL     1     -18.730   2.819 -15.670  0.00  0.00    -0.082 HD
ATOM     26  C   UNL     1     -18.693   1.335 -14.126  0.00  0.00    -0.064 C 
ATOM     27  C   UNL     1     -19.957   0.587 -14.635  0.00  0.00    +0.066 C 
ENDBRANCH  19  20
ENDBRANCH  18  19
ENDBRANCH  14  15
ENDBRANCH  12  13
TORSDOF 6
ENDMDL
MODEL 3
REMARK VINA RESULT:     -10.3      2.021     13.459
REMARK  Name = C:\Users\Docking\Desktop\test protocol\1iep_ligandH.pdb
REMARK  8 active torsions:
REMARK  status: ('A' for Active; 'I' for Inactive)
REMARK    1  A    between atoms: _5  and  _11
REMARK    2  A    between atoms: _19  and  _21
REMARK    3  A    between atoms: _22  and  _66
REMARK    4  A    between atoms: _27  and  _30
REMARK    5  A    between atoms: _32  and  _33
REMARK    6  A    between atoms: _38  and  _43
REMARK    7  A    between atoms: _43  and  _46
REMARK    8  A    between atoms: _53  and  _55
REMARK                            x       y       z     vdW  Elec       q    Type
REMARK                         _______ _______ _______ _____ _____    ______ ____
ROOT
ATOM     10  C   UNL     1     -28.540  -5.735  -6.471  0.00  0.00    +0.038 A 
ATOM     11  C   UNL     1     -27.916  -5.115  -7.582  0.00  0.00    +0.047 A 
ATOM     12  C   UNL     1     -28.252  -3.754  -7.972  0.00  0.00    +0.035 A 
ATOM     32  C   UNL     1     -29.228  -3.054  -7.204  0.00  0.00    +0.024 A 
ATOM     33  C   UNL     1     -29.874  -3.670  -6.072  0.00  0.00    +0.007 A 
ATOM     34  C   UNL     1     -29.548  -5.012  -5.685  0.00  0.00    -0.029 A 
ATOM     35  C   UNL     1     -30.276  -5.625  -4.466  0.00  0.00    +0.045 C 
ENDROOT
BRANCH  10   9
ATOM      4  C   UNL     1     -29.083 -10.492  -6.820  0.00  0.00    +0.077 A 
ATOM      5  C   UNL     1     -30.198 -10.358  -7.713  0.00  0.00    +0.048 A 
ATOM      6  C   UNL     1     -30.604  -9.048  -8.052  0.00  0.00    +0.116 A 
ATOM      7  N   UNL     1     -29.939  -7.960  -7.531  0.00  0.00    -0.223 NA
ATOM      8  C   UNL     1     -28.868  -8.124  -6.671  0.00  0.00    +0.220 A 
ATOM      9  N   UNL     1     -28.179  -7.044  -6.141  0.00  0.00    -0.283 N 
ATOM     36  H   UNL     1     -27.400  -7.206  -5.504  0.00  0.00    +0.155 HD
ATOM     37  N   UNL     1     -28.461  -9.364  -6.331  0.00  0.00    -0.214 NA
BRANCH   4   3
ATOM      1  C   UNL     1     -27.830 -14.197  -6.783  0.00  0.00    +0.020 A 
ATOM      2  C   UNL     1     -28.366 -12.946  -7.268  0.00  0.00    +0.013 A 
ATOM      3  C   UNL     1     -28.533 -11.809  -6.371  0.00  0.00    +0.019 A 
ATOM     38  C   UNL     1     -28.143 -11.973  -4.978  0.00  0.00    +0.120 A 
ATOM     39  N   UNL     1     -27.631 -13.190  -4.540  0.00  0.00    -0.263 NA
ATOM     40  C   UNL     1     -27.468 -14.291  -5.393  0.00  0.00    +0.111 A 
ENDBRANCH   4   3
ENDBRANCH  10   9
BRANCH  12  13
ATOM     13  N   UNL     1     -27.657  -3.075  -9.096  0.00  0.00    -0.281 N 
ATOM     14  C   UNL     1     -27.008  -1.851  -9.105  0.00  0.00    +0.248 C 
ATOM     30  O   UNL     1     -27.027  -1.051  -8.181  0.00  0.00    -0.270 OA
ATOM     31  H   UNL     1     -27.722  -3.554  -9.994  0.00  0.00    +0.155 HD
BRANCH  14  15
ATOM     15  C   UNL     1     -26.236  -1.452 -10.321  0.00  0.00    +0.037 A 
ATOM     16  C   UNL     1     -26.899  -1.267 -11.615  0.00  0.00    +0.013 A 
ATOM     17  C   UNL     1     -26.129  -0.899 -12.776  0.00  0.00    +0.005 A 
ATOM     18  C   UNL     1     -24.686  -0.711 -12.649  0.00  0.00    -0.033 A 
ATOM     28  C   UNL     1     -24.055  -0.895 -11.352  0.00  0.00    +0.005 A 
ATOM     29  C   UNL     1     -24.806  -1.258 -10.212  0.00  0.00    +0.013 A 
BRANCH  18  19
ATOM     19  C   UNL     1     -23.783  -0.338 -13.839  0.00  0.00    +0.119 C 
BRANCH  19  20
ATOM     20  N   UNL     1     -22.692   0.651 -13.586  0.00  0.00    -0.302 NA
ATOM     21  C   UNL     1     -23.071   2.057 -14.058  0.00  0.00    +0.066 C 
ATOM     22  C   UNL     1     -21.928   3.083 -13.765  0.00  0.00    -0.064 C 
ATOM     23  N   UNL     1     -20.639   2.613 -14.443  0.00  0.00    +0.379 N 
ATOM     24  C   UNL     1     -19.577   3.605 -14.218  0.00  0.00    -0.096 C 
ATOM     25  H   UNL     1     -20.833   2.567 -15.540  0.00  0.00    -0.082 HD
ATOM     26  C   UNL     1     -20.257   1.214 -13.982  0.00  0.00    -0.064 C 
ATOM     27  C   UNL     1     -21.411   0.208 -14.250  0.00  0.00    +0.066 C 
ENDBRANCH  19  20
ENDBRANCH  18  19
ENDBRANCH  14  15
ENDBRANCH  12  13
TORSDOF 6
ENDMDL
MODEL 4
REMARK VINA RESULT:      -9.4      6.225     12.713
REMARK  Name = C:\Users\Docking\Desktop\test protocol\1iep_ligandH.pdb
REMARK  8 active torsions:
REMARK  status: ('A' for Active; 'I' for Inactive)
REMARK    1  A    between atoms: _5  and  _11
REMARK    2  A    between atoms: _19  and  _21
REMARK    3  A    between atoms: _22  and  _66
REMARK    4  A    between atoms: _27  and  _30
REMARK    5  A    between atoms: _32  and  _33
REMARK    6  A    between atoms: _38  and  _43
REMARK    7  A    between atoms: _43  and  _46
REMARK    8  A    between atoms: _53  and  _55
REMARK                            x       y       z     vdW  Elec       q    Type
REMARK                         _______ _______ _______ _____ _____    ______ ____
ROOT
ATOM     10  C   UNL     1     -12.179   3.688 -15.378  0.00  0.00    +0.038 A 
ATOM     11  C   UNL     1     -13.559   3.718 -15.050  0.00  0.00    +0.047 A 
ATOM     12  C   UNL     1     -14.365   2.507 -15.073  0.00  0.00    +0.035 A 
ATOM     32  C   UNL     1     -13.732   1.282 -15.431  0.00  0.00    +0.024 A 
ATOM     33  C   UNL     1     -12.331   1.233 -15.768  0.00  0.00    +0.007 A 
ATOM     34  C   UNL     1     -11.532   2.424 -15.750  0.00  0.00    -0.029 A 
ATOM     35  C   UNL     1     -10.036   2.314 -16.126  0.00  0.00    +0.045 C 
ENDROOT
BRANCH  10   9
ATOM      4  C   UNL     1      -9.502   6.941 -13.079  0.00  0.00    +0.077 A 
ATOM      5  C   UNL     1      -9.578   6.217 -11.842  0.00  0.00    +0.048 A 
ATOM      6  C   UNL     1     -10.322   5.016 -11.839  0.00  0.00    +0.116 A 
ATOM      7  N   UNL     1     -10.939   4.581 -12.991  0.00  0.00    -0.223 NA
ATOM      8  C   UNL     1     -10.847   5.304 -14.166  0.00  0.00    +0.220 A 
ATOM      9  N   UNL     1     -11.453   4.880 -15.339  0.00  0.00    -0.283 N 
ATOM     36  H   UNL     1     -11.368   5.446 -16.183  0.00  0.00    +0.155 HD
ATOM     37  N   UNL     1     -10.144   6.455 -14.195  0.00  0.00    -0.214 NA
BRANCH   4   3
ATOM      1  C   UNL     1      -7.969  10.480 -12.423  0.00  0.00    +0.020 A 
ATOM      2  C   UNL     1      -8.710   9.257 -12.214  0.00  0.00    +0.013 A 
ATOM      3  C   UNL     1      -8.751   8.226 -13.243  0.00  0.00    +0.019 A 
ATOM     38  C   UNL     1      -8.024   8.464 -14.481  0.00  0.00    +0.120 A 
ATOM     39  N   UNL     1      -7.320   9.652 -14.654  0.00  0.00    -0.263 NA
ATOM     40  C   UNL     1      -7.276  10.652 -13.672  0.00  0.00    +0.111 A 
ENDBRANCH   4   3
ENDBRANCH  10   9
BRANCH  12  13
ATOM     13  N   UNL     1     -15.771   2.478 -14.758  0.00  0.00    -0.281 N 
ATOM     14  C   UNL     1     -16.793   3.200 -15.354  0.00  0.00    +0.248 C 
ATOM     30  O   UNL     1     -16.621   4.145 -16.110  0.00  0.00    -0.270 OA
ATOM     31  H   UNL     1     -16.048   1.849 -14.004  0.00  0.00    +0.155 HD
BRANCH  14  15
ATOM     15  C   UNL     1     -18.209   2.828 -15.056  0.00  0.00    +0.037 A 
ATOM     16  C   UNL     1     -18.574   1.457 -14.689  0.00  0.00    +0.013 A 
ATOM     17  C   UNL     1     -19.950   1.122 -14.423  0.00  0.00    +0.005 A 
ATOM     18  C   UNL     1     -20.973   2.161 -14.521  0.00  0.00    -0.033 A 
ATOM     28  C   UNL     1     -20.582   3.514 -14.882  0.00  0.00    +0.005 A 
ATOM     29  C   UNL     1     -19.234   3.846 -15.144  0.00  0.00    +0.013 A 
BRANCH  18  19
ATOM     19  C   UNL     1     -22.468   1.888 -14.275  0.00  0.00    +0.119 C 
BRANCH  19  20
ATOM     20  N   UNL     1     -22.822   0.657 -13.507  0.00  0.00    -0.302 NA
ATOM     21  C   UNL     1     -23.684  -0.305 -14.328  0.00  0.00    +0.066 C 
ATOM     22  C   UNL     1     -24.025  -1.597 -13.517  0.00  0.00    -0.064 C 
ATOM     23  N   UNL     1     -24.735  -1.208 -12.219  0.00  0.00    +0.379 N 
ATOM     24  C   UNL     1     -25.109  -2.424 -11.481  0.00  0.00    -0.096 C 
ATOM     25  H   UNL     1     -25.675  -0.677 -12.494  0.00  0.00    -0.082 HD
ATOM     26  C   UNL     1     -23.886  -0.249 -11.397  0.00  0.00    -0.064 C 
ATOM     27  C   UNL     1     -23.527   1.018 -12.223  0.00  0.00    +0.066 C 
ENDBRANCH  19  20
ENDBRANCH  18  19
ENDBRANCH  14  15
ENDBRANCH  12  13
TORSDOF 6
ENDMDL
MODEL 5
REMARK VINA RESULT:      -9.4      7.845     13.126
REMARK  Name = C:\Users\Docking\Desktop\test protocol\1iep_ligandH.pdb
REMARK  8 active torsions:
REMARK  status: ('A' for Active; 'I' for Inactive)
REMARK    1  A    between atoms: _5  and  _11
REMARK    2  A    between atoms: _19  and  _21
REMARK    3  A    between atoms: _22  and  _66
REMARK    4  A    between atoms: _27  and  _30
REMARK    5  A    between atoms: _32  and  _33
REMARK    6  A    between atoms: _38  and  _43
REMARK    7  A    between atoms: _43  and  _46
REMARK    8  A    between atoms: _53  and  _55
REMARK                            x       y       z     vdW  Elec       q    Type
REMARK                         _______ _______ _______ _____ _____    ______ ____
ROOT
ATOM     10  C   UNL     1     -22.694 -12.504  -6.753  0.00  0.00    +0.038 A 
ATOM     11  C   UNL     1     -23.842 -11.740  -7.084  0.00  0.00    +0.047 A 
ATOM     12  C   UNL     1     -24.039 -10.403  -6.545  0.00  0.00    +0.035 A 
ATOM     32  C   UNL     1     -23.044  -9.875  -5.671  0.00  0.00    +0.024 A 
ATOM     33  C   UNL     1     -21.871 -10.638  -5.323  0.00  0.00    +0.007 A 
ATOM     34  C   UNL     1     -21.673 -11.958  -5.850  0.00  0.00    -0.029 A 
ATOM     35  C   UNL     1     -20.401 -12.733  -5.437  0.00  0.00    +0.045 C 
ENDROOT
BRANCH  10   9
ATOM      4  C   UNL     1     -21.215 -15.494 -10.203  0.00  0.00    +0.077 A 
ATOM      5  C   UNL     1     -20.696 -14.416 -10.996  0.00  0.00    +0.048 A 
ATOM      6  C   UNL     1     -20.836 -13.107 -10.483  0.00  0.00    +0.116 A 
ATOM      7  N   UNL     1     -21.451 -12.903  -9.267  0.00  0.00    -0.223 NA
ATOM      8  C   UNL     1     -21.942 -13.964  -8.529  0.00  0.00    +0.220 A 
ATOM      9  N   UNL     1     -22.557 -13.782  -7.300  0.00  0.00    -0.283 N 
ATOM     36  H   UNL     1     -22.912 -14.589  -6.789  0.00  0.00    +0.155 HD
ATOM     37  N   UNL     1     -21.821 -15.223  -8.997  0.00  0.00    -0.214 NA
BRANCH   4   3
ATOM      1  C   UNL     1     -19.869 -18.987 -11.338  0.00  0.00    +0.020 A 
ATOM      2  C   UNL     1     -19.887 -17.595 -10.954  0.00  0.00    +0.013 A 
ATOM      3  C   UNL     1     -21.139 -16.933 -10.609  0.00  0.00    +0.019 A 
ATOM     38  C   UNL     1     -22.365 -17.715 -10.662  0.00  0.00    +0.120 A 
ATOM     39  N   UNL     1     -22.317 -19.054 -11.037  0.00  0.00    -0.263 NA
ATOM     40  C   UNL     1     -21.119 -19.701 -11.373  0.00  0.00    +0.111 A 
ENDBRANCH   4   3
ENDBRANCH  10   9
BRANCH  12  13
ATOM     13  N   UNL     1     -25.188  -9.584  -6.839  0.00  0.00    -0.281 N 
ATOM     14  C   UNL     1     -26.493  -9.761  -6.409  0.00  0.00    +0.248 C 
ATOM     30  O   UNL     1     -26.913 -10.778  -5.877  0.00  0.00    -0.270 OA
ATOM     31  H   UNL     1     -25.019  -8.775  -7.437  0.00  0.00    +0.155 HD
BRANCH  14  15
ATOM     15  C   UNL     1     -27.477  -8.655  -6.614  0.00  0.00    +0.037 A 
ATOM     16  C   UNL     1     -27.833  -8.193  -7.958  0.00  0.00    +0.013 A 
ATOM     17  C   UNL     1     -28.772  -7.112  -8.126  0.00  0.00    +0.005 A 
ATOM     18  C   UNL     1     -29.363  -6.487  -6.945  0.00  0.00    -0.033 A 
ATOM     28  C   UNL     1     -28.996  -6.969  -5.624  0.00  0.00    +0.005 A 
ATOM     29  C   UNL     1     -28.076  -8.027  -5.455  0.00  0.00    +0.013 A 
BRANCH  18  19
ATOM     19  C   UNL     1     -30.358  -5.314  -7.030  0.00  0.00    +0.119 C 
BRANCH  19  20
ATOM     20  N   UNL     1     -29.790  -3.934  -7.020  0.00  0.00    -0.302 NA
ATOM     21  C   UNL     1     -28.411  -3.875  -7.684  0.00  0.00    +0.066 C 
ATOM     22  C   UNL     1     -27.841  -2.419  -7.685  0.00  0.00    -0.064 C 
ATOM     23  N   UNL     1     -27.772  -1.901  -6.247  0.00  0.00    +0.379 N 
ATOM     24  C   UNL     1     -27.182  -0.554  -6.239  0.00  0.00    -0.096 C 
ATOM     25  H   UNL     1     -27.088  -2.573  -5.679  0.00  0.00    -0.082 HD
ATOM     26  C   UNL     1     -29.138  -1.958  -5.578  0.00  0.00    -0.064 C 
ATOM     27  C   UNL     1     -29.708  -3.404  -5.609  0.00  0.00    +0.066 C 
ENDBRANCH  19  20
ENDBRANCH  18  19
ENDBRANCH  14  15
ENDBRANCH  12  13
TORSDOF 6
ENDMDL
