MODEL 1
REMARK VINA RESULT:      -9.2      0.000      0.000
REMARK  Name = C:\Users\Docking\Desktop\test protocol\1iep_ligandH.pdb
REMARK  8 active torsions:
REMARK  status: ('A' for Active; 'I' for Inactive)
REMARK    1  A    between atoms: _5  and  _11
REMARK    2  A    between atoms: _19  and  _21
REMARK    3  A    between atoms: _22  and  _66
REMARK    4  A    between atoms: _27  and  _30
REMARK    5  A    between atoms: _32  and  _33
REMARK    6  A    between atoms: _38  and  _43
REMARK    7  A    between atoms: _43  and  _46
REMARK    8  A    between atoms: _53  and  _55
REMARK                            x       y       z     vdW  Elec       q    Type
REMARK                         _______ _______ _______ _____ _____    ______ ____
ROOT
ATOM     10  C   UNL     1      12.355  76.261  25.965  0.00  0.00    +0.038 A 
ATOM     11  C   UNL     1      13.647  76.764  26.267  0.00  0.00    +0.047 A 
ATOM     12  C   UNL     1      14.225  76.607  27.592  0.00  0.00    +0.035 A 
ATOM     32  C   UNL     1      13.460  75.930  28.587  0.00  0.00    +0.024 A 
ATOM     33  C   UNL     1      12.145  75.413  28.298  0.00  0.00    +0.007 A 
ATOM     34  C   UNL     1      11.569  75.568  26.993  0.00  0.00    -0.029 A 
ATOM     35  C   UNL     1      10.153  75.000  26.741  0.00  0.00    +0.045 C 
ENDROOT
BRANCH  10   9
ATOM      4  C   UNL     1      10.712  79.036  22.410  0.00  0.00    +0.077 A 
ATOM      5  C   UNL     1      10.849  80.227  23.197  0.00  0.00    +0.048 A 
ATOM      6  C   UNL     1      11.339  80.082  24.514  0.00  0.00    +0.116 A 
ATOM      7  N   UNL     1      11.665  78.833  24.998  0.00  0.00    -0.223 NA
ATOM      8  C   UNL     1      11.520  77.704  24.213  0.00  0.00    +0.220 A 
ATOM      9  N   UNL     1      11.849  76.440  24.676  0.00  0.00    -0.283 N 
ATOM     36  H   UNL     1      11.720  75.631  24.068  0.00  0.00    +0.155 HD
ATOM     37  N   UNL     1      11.053  77.816  22.952  0.00  0.00    -0.214 NA
BRANCH   4   3
ATOM      1  C   UNL     1       8.551  78.361  19.220  0.00  0.00    +0.020 A 
ATOM      2  C   UNL     1       8.991  78.339  20.596  0.00  0.00    +0.013 A 
ATOM      3  C   UNL     1      10.212  79.026  20.999  0.00  0.00    +0.019 A 
ATOM     38  C   UNL     1      10.969  79.733  19.977  0.00  0.00    +0.120 A 
ATOM     39  N   UNL     1      10.522  79.736  18.660  0.00  0.00    -0.263 NA
ATOM     40  C   UNL     1       9.350  79.077  18.260  0.00  0.00    +0.111 A 
ENDBRANCH   4   3
ENDBRANCH  10   9
BRANCH  12  13
ATOM     13  N   UNL     1      15.528  77.103  27.959  0.00  0.00    -0.281 N 
ATOM     14  C   UNL     1      15.893  77.756  29.125  0.00  0.00    +0.248 C 
ATOM     30  O   UNL     1      15.103  78.204  29.943  0.00  0.00    -0.270 OA
ATOM     31  H   UNL     1      16.271  76.956  27.276  0.00  0.00    +0.155 HD
BRANCH  14  15
ATOM     15  C   UNL     1      17.346  77.952  29.418  0.00  0.00    +0.037 A 
ATOM     16  C   UNL     1      18.358  77.818  28.367  0.00  0.00    +0.013 A 
ATOM     17  C   UNL     1      19.753  77.996  28.680  0.00  0.00    +0.005 A 
ATOM     18  C   UNL     1      20.145  78.311  30.052  0.00  0.00    -0.033 A 
ATOM     28  C   UNL     1      19.120  78.444  31.074  0.00  0.00    +0.005 A 
ATOM     29  C   UNL     1      17.751  78.269  30.771  0.00  0.00    +0.013 A 
BRANCH  18  19
ATOM     19  C   UNL     1      21.613  78.497  30.480  0.00  0.00    +0.119 C 
BRANCH  19  20
ATOM     20  N   UNL     1      22.090  79.895  30.697  0.00  0.00    -0.302 NA
ATOM     21  C   UNL     1      23.431  80.158  30.004  0.00  0.00    +0.066 C 
ATOM     22  C   UNL     1      23.904  81.632  30.222  0.00  0.00    -0.064 C 
ATOM     23  N   UNL     1      24.004  81.917  31.722  0.00  0.00    +0.379 N 
ATOM     24  C   UNL     1      24.505  83.283  31.930  0.00  0.00    -0.096 C 
ATOM     25  H   UNL     1      24.755  81.212  32.150  0.00  0.00    -0.082 HD
ATOM     26  C   UNL     1      22.676  81.655  32.418  0.00  0.00    -0.064 C 
ATOM     27  C   UNL     1      22.200  80.196  32.171  0.00  0.00    +0.066 C 
ENDBRANCH  19  20
ENDBRANCH  18  19
ENDBRANCH  14  15
ENDBRANCH  12  13
TORSDOF 6
ENDMDL
MODEL 2
REMARK VINA RESULT:      -9.0      1.765      2.718
REMARK  Name = C:\Users\Docking\Desktop\test protocol\1iep_ligandH.pdb
REMARK  8 active torsions:
REMARK  status: ('A' for Active; 'I' for Inactive)
REMARK    1  A    between atoms: _5  and  _11
REMARK    2  A    between atoms: _19  and  _21
REMARK    3  A    between atoms: _22  and  _66
REMARK    4  A    between atoms: _27  and  _30
REMARK    5  A    between atoms: _32  and  _33
REMARK    6  A    between atoms: _38  and  _43
REMARK    7  A    between atoms: _43  and  _46
REMARK    8  A    between atoms: _53  and  _55
REMARK                            x       y       z     vdW  Elec       q    Type
REMARK                         _______ _______ _______ _____ _____    ______ ____
ROOT
ATOM     10  C   UNL     1      12.409  76.287  26.096  0.00  0.00    +0.038 A 
ATOM     11  C   UNL     1      13.710  76.773  26.382  0.00  0.00    +0.047 A 
ATOM     12  C   UNL     1      14.292  76.632  27.708  0.00  0.00    +0.035 A 
ATOM     32  C   UNL     1      13.521  75.987  28.719  0.00  0.00    +0.024 A 
ATOM     33  C   UNL     1      12.196  75.488  28.446  0.00  0.00    +0.007 A 
ATOM     34  C   UNL     1      11.616  75.627  27.141  0.00  0.00    -0.029 A 
ATOM     35  C   UNL     1      10.189  75.078  26.906  0.00  0.00    +0.045 C 
ENDROOT
BRANCH  10   9
ATOM      4  C   UNL     1      10.742  79.016  22.517  0.00  0.00    +0.077 A 
ATOM      5  C   UNL     1      10.872  80.216  23.292  0.00  0.00    +0.048 A 
ATOM      6  C   UNL     1      11.365  80.087  24.610  0.00  0.00    +0.116 A 
ATOM      7  N   UNL     1      11.700  78.845  25.105  0.00  0.00    -0.223 NA
ATOM      8  C   UNL     1      11.561  77.708  24.331  0.00  0.00    +0.220 A 
ATOM      9  N   UNL     1      11.900  76.450  24.806  0.00  0.00    -0.283 N 
ATOM     36  H   UNL     1      11.775  75.634  24.207  0.00  0.00    +0.155 HD
ATOM     37  N   UNL     1      11.091  77.804  23.070  0.00  0.00    -0.214 NA
BRANCH   4   3
ATOM      1  C   UNL     1       8.654  78.193  19.313  0.00  0.00    +0.020 A 
ATOM      2  C   UNL     1       9.100  78.182  20.687  0.00  0.00    +0.013 A 
ATOM      3  C   UNL     1      10.239  78.989  21.107  0.00  0.00    +0.019 A 
ATOM     38  C   UNL     1      10.909  79.803  20.104  0.00  0.00    +0.120 A 
ATOM     39  N   UNL     1      10.458  79.792  18.788  0.00  0.00    -0.263 NA
ATOM     40  C   UNL     1       9.365  79.018  18.372  0.00  0.00    +0.111 A 
ENDBRANCH   4   3
ENDBRANCH  10   9
BRANCH  12  13
ATOM     13  N   UNL     1      15.605  77.113  28.059  0.00  0.00    -0.281 N 
ATOM     14  C   UNL     1      15.987  77.785  29.209  0.00  0.00    +0.248 C 
ATOM     30  O   UNL     1      15.208  78.265  30.019  0.00  0.00    -0.270 OA
ATOM     31  H   UNL     1      16.343  76.936  27.377  0.00  0.00    +0.155 HD
BRANCH  14  15
ATOM     15  C   UNL     1      17.444  77.961  29.492  0.00  0.00    +0.037 A 
ATOM     16  C   UNL     1      17.918  78.338  30.826  0.00  0.00    +0.013 A 
ATOM     17  C   UNL     1      19.328  78.519  31.068  0.00  0.00    +0.005 A 
ATOM     18  C   UNL     1      20.274  78.321  29.972  0.00  0.00    -0.033 A 
ATOM     28  C   UNL     1      19.776  77.942  28.660  0.00  0.00    +0.005 A 
ATOM     29  C   UNL     1      18.395  77.765  28.419  0.00  0.00    +0.013 A 
BRANCH  18  19
ATOM     19  C   UNL     1      21.793  78.512  30.135  0.00  0.00    +0.119 C 
BRANCH  19  20
ATOM     20  N   UNL     1      22.663  77.327  29.873  0.00  0.00    -0.302 NA
ATOM     21  C   UNL     1      23.020  76.580  31.161  0.00  0.00    +0.066 C 
ATOM     22  C   UNL     1      23.912  75.331  30.867  0.00  0.00    -0.064 C 
ATOM     23  N   UNL     1      25.177  75.773  30.129  0.00  0.00    +0.379 N 
ATOM     24  C   UNL     1      26.045  74.608  29.902  0.00  0.00    -0.096 C 
ATOM     25  H   UNL     1      25.726  76.480  30.794  0.00  0.00    -0.082 HD
ATOM     26  C   UNL     1      24.832  76.519  28.848  0.00  0.00    -0.064 C 
ATOM     27  C   UNL     1      23.921  77.742  29.149  0.00  0.00    +0.066 C 
ENDBRANCH  19  20
ENDBRANCH  18  19
ENDBRANCH  14  15
ENDBRANCH  12  13
TORSDOF 6
ENDMDL
MODEL 3
REMARK VINA RESULT:      -8.9     27.440     31.022
REMARK  Name = C:\Users\Docking\Desktop\test protocol\1iep_ligandH.pdb
REMARK  8 active torsions:
REMARK  status: ('A' for Active; 'I' for Inactive)
REMARK    1  A    between atoms: _5  and  _11
REMARK    2  A    between atoms: _19  and  _21
REMARK    3  A    between atoms: _22  and  _66
REMARK    4  A    between atoms: _27  and  _30
REMARK    5  A    between atoms: _32  and  _33
REMARK    6  A    between atoms: _38  and  _43
REMARK    7  A    between atoms: _43  and  _46
REMARK    8  A    between atoms: _53  and  _55
REMARK                            x       y       z     vdW  Elec       q    Type
REMARK                         _______ _______ _______ _____ _____    ______ ____
ROOT
ATOM     10  C   UNL     1      29.745 106.680  19.193  0.00  0.00    +0.038 A 
ATOM     11  C   UNL     1      30.038 105.634  20.104  0.00  0.00    +0.047 A 
ATOM     12  C   UNL     1      30.336 105.914  21.500  0.00  0.00    +0.035 A 
ATOM     32  C   UNL     1      30.324 107.271  21.935  0.00  0.00    +0.024 A 
ATOM     33  C   UNL     1      30.029 108.347  21.022  0.00  0.00    +0.007 A 
ATOM     34  C   UNL     1      29.737 108.077  19.643  0.00  0.00    -0.029 A 
ATOM     35  C   UNL     1      29.434 109.271  18.707  0.00  0.00    +0.045 C 
ENDROOT
BRANCH  10   9
ATOM      4  C   UNL     1      31.114 105.478  14.752  0.00  0.00    +0.077 A 
ATOM      5  C   UNL     1      32.504 105.529  15.104  0.00  0.00    +0.048 A 
ATOM      6  C   UNL     1      32.824 105.876  16.435  0.00  0.00    +0.116 A 
ATOM      7  N   UNL     1      31.821 106.149  17.340  0.00  0.00    -0.223 NA
ATOM      8  C   UNL     1      30.491 106.092  16.968  0.00  0.00    +0.220 A 
ATOM      9  N   UNL     1      29.466 106.355  17.864  0.00  0.00    -0.283 N 
ATOM     36  H   UNL     1      28.497 106.309  17.548  0.00  0.00    +0.155 HD
ATOM     37  N   UNL     1      30.159 105.765  15.702  0.00  0.00    -0.214 NA
BRANCH   4   3
ATOM      1  C   UNL     1      30.817 105.092  10.871  0.00  0.00    +0.020 A 
ATOM      2  C   UNL     1      31.342 105.457  12.167  0.00  0.00    +0.013 A 
ATOM      3  C   UNL     1      30.616 105.124  13.386  0.00  0.00    +0.019 A 
ATOM     38  C   UNL     1      29.352 104.414  13.258  0.00  0.00    +0.120 A 
ATOM     39  N   UNL     1      28.871 104.076  11.997  0.00  0.00    -0.263 NA
ATOM     40  C   UNL     1      29.560 104.394  10.817  0.00  0.00    +0.111 A 
ENDBRANCH   4   3
ENDBRANCH  10   9
BRANCH  12  13
ATOM     13  N   UNL     1      30.649 104.893  22.470  0.00  0.00    -0.281 N 
ATOM     14  C   UNL     1      29.796 103.950  23.018  0.00  0.00    +0.248 C 
ATOM     30  O   UNL     1      28.579 103.976  22.917  0.00  0.00    -0.270 OA
ATOM     31  H   UNL     1      31.617 104.863  22.791  0.00  0.00    +0.155 HD
BRANCH  14  15
ATOM     15  C   UNL     1      30.379 102.821  23.806  0.00  0.00    +0.037 A 
ATOM     16  C   UNL     1      30.196 102.732  25.257  0.00  0.00    +0.013 A 
ATOM     17  C   UNL     1      30.783 101.642  25.994  0.00  0.00    +0.005 A 
ATOM     18  C   UNL     1      31.559 100.630  25.281  0.00  0.00    -0.033 A 
ATOM     28  C   UNL     1      31.720 100.739  23.840  0.00  0.00    +0.005 A 
ATOM     29  C   UNL     1      31.147 101.807  23.114  0.00  0.00    +0.013 A 
BRANCH  18  19
ATOM     19  C   UNL     1      32.239  99.443  25.990  0.00  0.00    +0.119 C 
BRANCH  19  20
ATOM     20  N   UNL     1      32.686  99.654  27.399  0.00  0.00    -0.302 NA
ATOM     21  C   UNL     1      34.102 100.233  27.471  0.00  0.00    +0.066 C 
ATOM     22  C   UNL     1      34.546 100.469  28.952  0.00  0.00    -0.064 C 
ATOM     23  N   UNL     1      34.460  99.150  29.723  0.00  0.00    +0.379 N 
ATOM     24  C   UNL     1      34.931  99.356  31.100  0.00  0.00    -0.096 C 
ATOM     25  H   UNL     1      35.151  98.426  29.232  0.00  0.00    -0.082 HD
ATOM     26  C   UNL     1      33.056  98.566  29.654  0.00  0.00    -0.064 C 
ATOM     27  C   UNL     1      32.613  98.364  28.177  0.00  0.00    +0.066 C 
ENDBRANCH  19  20
ENDBRANCH  18  19
ENDBRANCH  14  15
ENDBRANCH  12  13
TORSDOF 6
ENDMDL
MODEL 4
REMARK VINA RESULT:      -8.5      7.483     10.078
REMARK  Name = C:\Users\Docking\Desktop\test protocol\1iep_ligandH.pdb
REMARK  8 active torsions:
REMARK  status: ('A' for Active; 'I' for Inactive)
REMARK    1  A    between atoms: _5  and  _11
REMARK    2  A    between atoms: _19  and  _21
REMARK    3  A    between atoms: _22  and  _66
REMARK    4  A    between atoms: _27  and  _30
REMARK    5  A    between atoms: _32  and  _33
REMARK    6  A    between atoms: _38  and  _43
REMARK    7  A    between atoms: _43  and  _46
REMARK    8  A    between atoms: _53  and  _55
REMARK                            x       y       z     vdW  Elec       q    Type
REMARK                         _______ _______ _______ _____ _____    ______ ____
ROOT
ATOM     10  C   UNL     1      10.124  80.366  26.838  0.00  0.00    +0.038 A 
ATOM     11  C   UNL     1      10.180  81.718  27.263  0.00  0.00    +0.047 A 
ATOM     12  C   UNL     1      10.630  82.068  28.601  0.00  0.00    +0.035 A 
ATOM     32  C   UNL     1      11.020  81.016  29.480  0.00  0.00    +0.024 A 
ATOM     33  C   UNL     1      10.968  79.636  29.065  0.00  0.00    +0.007 A 
ATOM     34  C   UNL     1      10.523  79.284  27.747  0.00  0.00    -0.029 A 
ATOM     35  C   UNL     1      10.482  77.788  27.358  0.00  0.00    +0.045 C 
ENDROOT
BRANCH  10   9
ATOM      4  C   UNL     1      10.926  79.600  22.168  0.00  0.00    +0.077 A 
ATOM      5  C   UNL     1      12.339  79.800  22.317  0.00  0.00    +0.048 A 
ATOM      6  C   UNL     1      12.818  80.105  23.611  0.00  0.00    +0.116 A 
ATOM      7  N   UNL     1      11.941  80.200  24.670  0.00  0.00    -0.223 NA
ATOM      8  C   UNL     1      10.584  80.003  24.491  0.00  0.00    +0.220 A 
ATOM      9  N   UNL     1       9.684  80.087  25.542  0.00  0.00    -0.283 N 
ATOM     36  H   UNL     1       8.690  79.942  25.368  0.00  0.00    +0.155 HD
ATOM     37  N   UNL     1      10.101  79.712  23.265  0.00  0.00    -0.214 NA
BRANCH   4   3
ATOM      1  C   UNL     1       8.507  78.108  19.481  0.00  0.00    +0.020 A 
ATOM      2  C   UNL     1       9.105  78.396  20.764  0.00  0.00    +0.013 A 
ATOM      3  C   UNL     1      10.268  79.268  20.865  0.00  0.00    +0.019 A 
ATOM     38  C   UNL     1      10.806  79.837  19.639  0.00  0.00    +0.120 A 
ATOM     39  N   UNL     1      10.211  79.541  18.417  0.00  0.00    -0.263 NA
ATOM     40  C   UNL     1       9.092  78.702  18.307  0.00  0.00    +0.111 A 
ENDBRANCH   4   3
ENDBRANCH  10   9
BRANCH  12  13
ATOM     13  N   UNL     1      10.700  83.423  29.091  0.00  0.00    -0.281 N 
ATOM     14  C   UNL     1      11.817  84.237  29.188  0.00  0.00    +0.248 C 
ATOM     30  O   UNL     1      12.969  83.847  29.066  0.00  0.00    -0.270 OA
ATOM     31  H   UNL     1       9.819  83.831  29.404  0.00  0.00    +0.155 HD
BRANCH  14  15
ATOM     15  C   UNL     1      11.627  85.691  29.476  0.00  0.00    +0.037 A 
ATOM     16  C   UNL     1      12.334  86.345  30.580  0.00  0.00    +0.013 A 
ATOM     17  C   UNL     1      12.120  87.746  30.847  0.00  0.00    +0.005 A 
ATOM     18  C   UNL     1      11.195  88.502  30.006  0.00  0.00    -0.033 A 
ATOM     28  C   UNL     1      10.511  87.829  28.914  0.00  0.00    +0.005 A 
ATOM     29  C   UNL     1      10.717  86.456  28.650  0.00  0.00    +0.013 A 
BRANCH  18  19
ATOM     19  C   UNL     1      10.890  89.995  30.231  0.00  0.00    +0.119 C 
BRANCH  19  20
ATOM     20  N   UNL     1      10.189  90.723  29.131  0.00  0.00    -0.302 NA
ATOM     21  C   UNL     1      10.908  92.021  28.753  0.00  0.00    +0.066 C 
ATOM     22  C   UNL     1      10.175  92.758  27.586  0.00  0.00    -0.064 C 
ATOM     23  N   UNL     1       8.727  93.039  27.993  0.00  0.00    +0.379 N 
ATOM     24  C   UNL     1       8.052  93.784  26.920  0.00  0.00    -0.096 C 
ATOM     25  H   UNL     1       8.751  93.693  28.896  0.00  0.00    -0.082 HD
ATOM     26  C   UNL     1       8.006  91.754  28.373  0.00  0.00    -0.064 C 
ATOM     27  C   UNL     1       8.759  91.014  29.514  0.00  0.00    +0.066 C 
ENDBRANCH  19  20
ENDBRANCH  18  19
ENDBRANCH  14  15
ENDBRANCH  12  13
TORSDOF 6
ENDMDL
MODEL 5
REMARK VINA RESULT:      -8.1     29.034     33.818
REMARK  Name = C:\Users\Docking\Desktop\test protocol\1iep_ligandH.pdb
REMARK  8 active torsions:
REMARK  status: ('A' for Active; 'I' for Inactive)
REMARK    1  A    between atoms: _5  and  _11
REMARK    2  A    between atoms: _19  and  _21
REMARK    3  A    between atoms: _22  and  _66
REMARK    4  A    between atoms: _27  and  _30
REMARK    5  A    between atoms: _32  and  _33
REMARK    6  A    between atoms: _38  and  _43
REMARK    7  A    between atoms: _43  and  _46
REMARK    8  A    between atoms: _53  and  _55
REMARK                            x       y       z     vdW  Elec       q    Type
REMARK                         _______ _______ _______ _____ _____    ______ ____
ROOT
ATOM     10  C   UNL     1      28.019  78.028  -6.011  0.00  0.00    +0.038 A 
ATOM     11  C   UNL     1      27.784  79.295  -5.419  0.00  0.00    +0.047 A 
ATOM     12  C   UNL     1      28.486  80.483  -5.879  0.00  0.00    +0.035 A 
ATOM     32  C   UNL     1      29.420  80.344  -6.947  0.00  0.00    +0.024 A 
ATOM     33  C   UNL     1      29.672  79.063  -7.560  0.00  0.00    +0.007 A 
ATOM     34  C   UNL     1      28.983  77.888  -7.108  0.00  0.00    -0.029 A 
ATOM     35  C   UNL     1      29.298  76.539  -7.797  0.00  0.00    +0.045 C 
ENDROOT
BRANCH  10   9
ATOM      4  C   UNL     1      27.596  74.204  -3.140  0.00  0.00    +0.077 A 
ATOM      5  C   UNL     1      28.896  74.414  -2.571  0.00  0.00    +0.048 A 
ATOM      6  C   UNL     1      29.644  75.513  -3.049  0.00  0.00    +0.116 A 
ATOM      7  N   UNL     1      29.121  76.335  -4.024  0.00  0.00    -0.223 NA
ATOM      8  C   UNL     1      27.865  76.103  -4.553  0.00  0.00    +0.220 A 
ATOM      9  N   UNL     1      27.316  76.921  -5.529  0.00  0.00    -0.283 N 
ATOM     36  H   UNL     1      26.389  76.712  -5.899  0.00  0.00    +0.155 HD
ATOM     37  N   UNL     1      27.131  75.059  -4.114  0.00  0.00    -0.214 NA
BRANCH   4   3
ATOM      1  C   UNL     1      25.033  72.007  -1.165  0.00  0.00    +0.020 A 
ATOM      2  C   UNL     1      25.899  73.111  -1.508  0.00  0.00    +0.013 A 
ATOM      3  C   UNL     1      26.683  73.088  -2.736  0.00  0.00    +0.019 A 
ATOM     38  C   UNL     1      26.567  71.925  -3.603  0.00  0.00    +0.120 A 
ATOM     39  N   UNL     1      25.725  70.876  -3.245  0.00  0.00    -0.263 NA
ATOM     40  C   UNL     1      24.967  70.886  -2.065  0.00  0.00    +0.111 A 
ENDBRANCH   4   3
ENDBRANCH  10   9
BRANCH  12  13
ATOM     13  N   UNL     1      28.295  81.794  -5.311  0.00  0.00    -0.281 N 
ATOM     14  C   UNL     1      27.545  82.842  -5.820  0.00  0.00    +0.248 C 
ATOM     30  O   UNL     1      27.095  82.881  -6.956  0.00  0.00    -0.270 OA
ATOM     31  H   UNL     1      28.770  81.972  -4.426  0.00  0.00    +0.155 HD
BRANCH  14  15
ATOM     15  C   UNL     1      27.268  84.022  -4.947  0.00  0.00    +0.037 A 
ATOM     16  C   UNL     1      25.896  84.407  -4.602  0.00  0.00    +0.013 A 
ATOM     17  C   UNL     1      25.656  85.560  -3.772  0.00  0.00    +0.005 A 
ATOM     18  C   UNL     1      26.791  86.337  -3.279  0.00  0.00    -0.033 A 
ATOM     28  C   UNL     1      28.141  85.930  -3.631  0.00  0.00    +0.005 A 
ATOM     29  C   UNL     1      28.380  84.801  -4.446  0.00  0.00    +0.013 A 
BRANCH  18  19
ATOM     19  C   UNL     1      26.627  87.594  -2.404  0.00  0.00    +0.119 C 
BRANCH  19  20
ATOM     20  N   UNL     1      25.840  87.452  -1.143  0.00  0.00    -0.302 NA
ATOM     21  C   UNL     1      24.547  88.273  -1.177  0.00  0.00    +0.066 C 
ATOM     22  C   UNL     1      23.725  88.095   0.141  0.00  0.00    -0.064 C 
ATOM     23  N   UNL     1      24.591  88.497   1.337  0.00  0.00    +0.379 N 
ATOM     24  C   UNL     1      23.802  88.386   2.572  0.00  0.00    -0.096 C 
ATOM     25  H   UNL     1      24.869  89.569   1.207  0.00  0.00    -0.082 HD
ATOM     26  C   UNL     1      25.880  87.688   1.376  0.00  0.00    -0.064 C 
ATOM     27  C   UNL     1      26.674  87.848   0.050  0.00  0.00    +0.066 C 
ENDBRANCH  19  20
ENDBRANCH  18  19
ENDBRANCH  14  15
ENDBRANCH  12  13
TORSDOF 6
ENDMDL
