MODEL 1
REMARK VINA RESULT:      -7.7      0.000      0.000
REMARK  Name = C:\Users\Docking\Desktop\test protocol\1iep_ligandH.pdb
REMARK  8 active torsions:
REMARK  status: ('A' for Active; 'I' for Inactive)
REMARK    1  A    between atoms: _5  and  _11
REMARK    2  A    between atoms: _19  and  _21
REMARK    3  A    between atoms: _22  and  _66
REMARK    4  A    between atoms: _27  and  _30
REMARK    5  A    between atoms: _32  and  _33
REMARK    6  A    between atoms: _38  and  _43
REMARK    7  A    between atoms: _43  and  _46
REMARK    8  A    between atoms: _53  and  _55
REMARK                            x       y       z     vdW  Elec       q    Type
REMARK                         _______ _______ _______ _____ _____    ______ ____
ROOT
ATOM     10  C   UNL     1      18.008  -8.357  22.687  0.00  0.00    +0.038 A 
ATOM     11  C   UNL     1      17.237  -7.377  22.012  0.00  0.00    +0.047 A 
ATOM     12  C   UNL     1      17.872  -6.320  21.240  0.00  0.00    +0.035 A 
ATOM     32  C   UNL     1      19.296  -6.294  21.175  0.00  0.00    +0.024 A 
ATOM     33  C   UNL     1      20.095  -7.281  21.857  0.00  0.00    +0.007 A 
ATOM     34  C   UNL     1      19.474  -8.325  22.621  0.00  0.00    -0.029 A 
ATOM     35  C   UNL     1      20.381  -9.353  23.337  0.00  0.00    +0.045 C 
ENDROOT
BRANCH  10   9
ATOM      4  C   UNL     1      15.863  -9.970  26.667  0.00  0.00    +0.077 A 
ATOM      5  C   UNL     1      16.105  -8.741  27.366  0.00  0.00    +0.048 A 
ATOM      6  C   UNL     1      16.792  -7.722  26.669  0.00  0.00    +0.116 A 
ATOM      7  N   UNL     1      17.200  -7.927  25.369  0.00  0.00    -0.223 NA
ATOM      8  C   UNL     1      16.951  -9.124  24.724  0.00  0.00    +0.220 A 
ATOM      9  N   UNL     1      17.346  -9.349  23.414  0.00  0.00    -0.283 N 
ATOM     36  H   UNL     1      17.150 -10.249  22.976  0.00  0.00    +0.155 HD
ATOM     37  N   UNL     1      16.299 -10.114  25.368  0.00  0.00    -0.214 NA
BRANCH   4   3
ATOM      1  C   UNL     1      14.567 -13.592  27.374  0.00  0.00    +0.020 A 
ATOM      2  C   UNL     1      15.280 -12.497  26.756  0.00  0.00    +0.013 A 
ATOM      3  C   UNL     1      15.147 -11.139  27.268  0.00  0.00    +0.019 A 
ATOM     38  C   UNL     1      14.278 -10.921  28.414  0.00  0.00    +0.120 A 
ATOM     39  N   UNL     1      13.603 -11.994  28.987  0.00  0.00    -0.263 NA
ATOM     40  C   UNL     1      13.722 -13.305  28.503  0.00  0.00    +0.111 A 
ENDBRANCH   4   3
ENDBRANCH  10   9
BRANCH  12  13
ATOM     13  N   UNL     1      17.142  -5.293  20.540  0.00  0.00    -0.281 N 
ATOM     14  C   UNL     1      16.301  -4.331  21.075  0.00  0.00    +0.248 C 
ATOM     30  O   UNL     1      15.881  -4.341  22.222  0.00  0.00    -0.270 OA
ATOM     31  H   UNL     1      17.258  -5.273  19.526  0.00  0.00    +0.155 HD
BRANCH  14  15
ATOM     15  C   UNL     1      15.851  -3.201  20.206  0.00  0.00    +0.037 A 
ATOM     16  C   UNL     1      15.776  -3.346  18.750  0.00  0.00    +0.013 A 
ATOM     17  C   UNL     1      15.355  -2.235  17.933  0.00  0.00    +0.005 A 
ATOM     18  C   UNL     1      15.005  -0.969  18.572  0.00  0.00    -0.033 A 
ATOM     28  C   UNL     1      15.083  -0.854  20.019  0.00  0.00    +0.005 A 
ATOM     29  C   UNL     1      15.497  -1.941  20.822  0.00  0.00    +0.013 A 
BRANCH  18  19
ATOM     19  C   UNL     1      14.566   0.276  17.778  0.00  0.00    +0.119 C 
BRANCH  19  20
ATOM     20  N   UNL     1      13.734   0.050  16.558  0.00  0.00    -0.302 NA
ATOM     21  C   UNL     1      14.402   0.603  15.297  0.00  0.00    +0.066 C 
ATOM     22  C   UNL     1      13.529   0.338  14.027  0.00  0.00    -0.064 C 
ATOM     23  N   UNL     1      12.145   0.961  14.224  0.00  0.00    +0.379 N 
ATOM     24  C   UNL     1      11.341   0.764  13.010  0.00  0.00    -0.096 C 
ATOM     25  H   UNL     1      12.285   2.058  14.364  0.00  0.00    -0.082 HD
ATOM     26  C   UNL     1      11.475   0.418  15.479  0.00  0.00    -0.064 C 
ATOM     27  C   UNL     1      12.364   0.660  16.730  0.00  0.00    +0.066 C 
ENDBRANCH  19  20
ENDBRANCH  18  19
ENDBRANCH  14  15
ENDBRANCH  12  13
TORSDOF 6
ENDMDL
MODEL 2
REMARK VINA RESULT:      -7.3     18.520     22.299
REMARK  Name = C:\Users\Docking\Desktop\test protocol\1iep_ligandH.pdb
REMARK  8 active torsions:
REMARK  status: ('A' for Active; 'I' for Inactive)
REMARK    1  A    between atoms: _5  and  _11
REMARK    2  A    between atoms: _19  and  _21
REMARK    3  A    between atoms: _22  and  _66
REMARK    4  A    between atoms: _27  and  _30
REMARK    5  A    between atoms: _32  and  _33
REMARK    6  A    between atoms: _38  and  _43
REMARK    7  A    between atoms: _43  and  _46
REMARK    8  A    between atoms: _53  and  _55
REMARK                            x       y       z     vdW  Elec       q    Type
REMARK                         _______ _______ _______ _____ _____    ______ ____
ROOT
ATOM     10  C   UNL     1      19.099 -26.270  13.351  0.00  0.00    +0.038 A 
ATOM     11  C   UNL     1      19.986 -25.231  13.734  0.00  0.00    +0.047 A 
ATOM     12  C   UNL     1      21.008 -25.450  14.746  0.00  0.00    +0.035 A 
ATOM     32  C   UNL     1      21.101 -26.740  15.344  0.00  0.00    +0.024 A 
ATOM     33  C   UNL     1      20.208 -27.807  14.967  0.00  0.00    +0.007 A 
ATOM     34  C   UNL     1      19.196 -27.596  13.972  0.00  0.00    -0.029 A 
ATOM     35  C   UNL     1      18.261 -28.774  13.611  0.00  0.00    +0.045 C 
ENDROOT
BRANCH  10   9
ATOM      4  C   UNL     1      17.650 -26.074   8.779  0.00  0.00    +0.077 A 
ATOM      5  C   UNL     1      18.927 -26.512   8.294  0.00  0.00    +0.048 A 
ATOM      6  C   UNL     1      19.932 -26.770   9.253  0.00  0.00    +0.116 A 
ATOM      7  N   UNL     1      19.668 -26.600  10.594  0.00  0.00    -0.223 NA
ATOM      8  C   UNL     1      18.426 -26.175  11.029  0.00  0.00    +0.220 A 
ATOM      9  N   UNL     1      18.137 -26.004  12.374  0.00  0.00    -0.283 N 
ATOM     36  H   UNL     1      17.211 -25.682  12.654  0.00  0.00    +0.155 HD
ATOM     37  N   UNL     1      17.450 -25.920  10.133  0.00  0.00    -0.214 NA
BRANCH   4   3
ATOM      1  C   UNL     1      14.105 -25.028   7.498  0.00  0.00    +0.020 A 
ATOM      2  C   UNL     1      15.197 -25.314   8.400  0.00  0.00    +0.013 A 
ATOM      3  C   UNL     1      16.485 -25.765   7.890  0.00  0.00    +0.019 A 
ATOM     38  C   UNL     1      16.638 -25.917   6.451  0.00  0.00    +0.120 A 
ATOM     39  N   UNL     1      15.568 -25.636   5.607  0.00  0.00    -0.263 NA
ATOM     40  C   UNL     1      14.323 -25.203   6.086  0.00  0.00    +0.111 A 
ENDBRANCH   4   3
ENDBRANCH  10   9
BRANCH  12  13
ATOM     13  N   UNL     1      21.931 -24.431  15.182  0.00  0.00    -0.281 N 
ATOM     14  C   UNL     1      23.065 -23.974  14.530  0.00  0.00    +0.248 C 
ATOM     30  O   UNL     1      23.579 -24.525  13.568  0.00  0.00    -0.270 OA
ATOM     31  H   UNL     1      21.723 -23.994  16.079  0.00  0.00    +0.155 HD
BRANCH  14  15
ATOM     15  C   UNL     1      23.733 -22.733  15.028  0.00  0.00    +0.037 A 
ATOM     16  C   UNL     1      24.503 -22.733  16.275  0.00  0.00    +0.013 A 
ATOM     17  C   UNL     1      25.123 -21.518  16.741  0.00  0.00    +0.005 A 
ATOM     18  C   UNL     1      24.977 -20.293  15.959  0.00  0.00    -0.033 A 
ATOM     28  C   UNL     1      24.212 -20.323  14.724  0.00  0.00    +0.005 A 
ATOM     29  C   UNL     1      23.601 -21.511  14.264  0.00  0.00    +0.013 A 
BRANCH  18  19
ATOM     19  C   UNL     1      25.587 -18.947  16.392  0.00  0.00    +0.119 C 
BRANCH  19  20
ATOM     20  N   UNL     1      24.646 -17.896  16.883  0.00  0.00    -0.302 NA
ATOM     21  C   UNL     1      23.417 -18.500  17.569  0.00  0.00    +0.066 C 
ATOM     22  C   UNL     1      22.455 -17.387  18.097  0.00  0.00    -0.064 C 
ATOM     23  N   UNL     1      22.037 -16.486  16.934  0.00  0.00    +0.379 N 
ATOM     24  C   UNL     1      21.086 -15.473  17.415  0.00  0.00    -0.096 C 
ATOM     25  H   UNL     1      21.505 -17.121  16.188  0.00  0.00    -0.082 HD
ATOM     26  C   UNL     1      23.252 -15.883  16.244  0.00  0.00    -0.064 C 
ATOM     27  C   UNL     1      24.217 -16.997  15.750  0.00  0.00    +0.066 C 
ENDBRANCH  19  20
ENDBRANCH  18  19
ENDBRANCH  14  15
ENDBRANCH  12  13
TORSDOF 6
ENDMDL
MODEL 3
REMARK VINA RESULT:      -7.2      1.633      2.246
REMARK  Name = C:\Users\Docking\Desktop\test protocol\1iep_ligandH.pdb
REMARK  8 active torsions:
REMARK  status: ('A' for Active; 'I' for Inactive)
REMARK    1  A    between atoms: _5  and  _11
REMARK    2  A    between atoms: _19  and  _21
REMARK    3  A    between atoms: _22  and  _66
REMARK    4  A    between atoms: _27  and  _30
REMARK    5  A    between atoms: _32  and  _33
REMARK    6  A    between atoms: _38  and  _43
REMARK    7  A    between atoms: _43  and  _46
REMARK    8  A    between atoms: _53  and  _55
REMARK                            x       y       z     vdW  Elec       q    Type
REMARK                         _______ _______ _______ _____ _____    ______ ____
ROOT
ATOM     10  C   UNL     1      18.462  -8.424  22.770  0.00  0.00    +0.038 A 
ATOM     11  C   UNL     1      17.817  -7.671  21.756  0.00  0.00    +0.047 A 
ATOM     12  C   UNL     1      18.518  -6.614  21.043  0.00  0.00    +0.035 A 
ATOM     32  C   UNL     1      19.876  -6.352  21.388  0.00  0.00    +0.024 A 
ATOM     33  C   UNL     1      20.546  -7.107  22.417  0.00  0.00    +0.007 A 
ATOM     34  C   UNL     1      19.859  -8.149  23.125  0.00  0.00    -0.029 A 
ATOM     35  C   UNL     1      20.626  -8.922  24.224  0.00  0.00    +0.045 C 
ENDROOT
BRANCH  10   9
ATOM      4  C   UNL     1      15.799 -10.028  26.427  0.00  0.00    +0.077 A 
ATOM      5  C   UNL     1      15.871  -8.768  27.110  0.00  0.00    +0.048 A 
ATOM      6  C   UNL     1      16.609  -7.736  26.489  0.00  0.00    +0.116 A 
ATOM      7  N   UNL     1      17.225  -7.957  25.277  0.00  0.00    -0.223 NA
ATOM      8  C   UNL     1      17.137  -9.185  24.646  0.00  0.00    +0.220 A 
ATOM      9  N   UNL     1      17.741  -9.428  23.422  0.00  0.00    -0.283 N 
ATOM     36  H   UNL     1      17.659 -10.349  22.993  0.00  0.00    +0.155 HD
ATOM     37  N   UNL     1      16.439 -10.188  25.219  0.00  0.00    -0.214 NA
BRANCH   4   3
ATOM      1  C   UNL     1      12.931 -12.423  27.584  0.00  0.00    +0.020 A 
ATOM      2  C   UNL     1      13.601 -11.251  27.070  0.00  0.00    +0.013 A 
ATOM      3  C   UNL     1      15.054 -11.215  26.954  0.00  0.00    +0.019 A 
ATOM     38  C   UNL     1      15.804 -12.391  27.369  0.00  0.00    +0.120 A 
ATOM     39  N   UNL     1      15.131 -13.504  27.862  0.00  0.00    -0.263 NA
ATOM     40  C   UNL     1      13.734 -13.550  27.980  0.00  0.00    +0.111 A 
ENDBRANCH   4   3
ENDBRANCH  10   9
BRANCH  12  13
ATOM     13  N   UNL     1      17.913  -5.811  20.010  0.00  0.00    -0.281 N 
ATOM     14  C   UNL     1      17.351  -4.550  20.130  0.00  0.00    +0.248 C 
ATOM     30  O   UNL     1      17.091  -4.008  21.194  0.00  0.00    -0.270 OA
ATOM     31  H   UNL     1      17.896  -6.222  19.076  0.00  0.00    +0.155 HD
BRANCH  14  15
ATOM     15  C   UNL     1      17.017  -3.788  18.889  0.00  0.00    +0.037 A 
ATOM     16  C   UNL     1      15.675  -3.243  18.670  0.00  0.00    +0.013 A 
ATOM     17  C   UNL     1      15.374  -2.526  17.456  0.00  0.00    +0.005 A 
ATOM     18  C   UNL     1      16.420  -2.348  16.452  0.00  0.00    -0.033 A 
ATOM     28  C   UNL     1      17.744  -2.895  16.696  0.00  0.00    +0.005 A 
ATOM     29  C   UNL     1      18.042  -3.599  17.884  0.00  0.00    +0.013 A 
BRANCH  18  19
ATOM     19  C   UNL     1      16.182  -1.615  15.118  0.00  0.00    +0.119 C 
BRANCH  19  20
ATOM     20  N   UNL     1      15.901  -0.150  15.184  0.00  0.00    -0.302 NA
ATOM     21  C   UNL     1      16.647   0.527  16.337  0.00  0.00    +0.066 C 
ATOM     22  C   UNL     1      16.359   2.063  16.377  0.00  0.00    -0.064 C 
ATOM     23  N   UNL     1      14.851   2.293  16.498  0.00  0.00    +0.379 N 
ATOM     24  C   UNL     1      14.581   3.735  16.594  0.00  0.00    -0.096 C 
ATOM     25  H   UNL     1      14.513   1.821  17.449  0.00  0.00    -0.082 HD
ATOM     26  C   UNL     1      14.101   1.621  15.357  0.00  0.00    -0.064 C 
ATOM     27  C   UNL     1      14.418   0.100  15.308  0.00  0.00    +0.066 C 
ENDBRANCH  19  20
ENDBRANCH  18  19
ENDBRANCH  14  15
ENDBRANCH  12  13
TORSDOF 6
ENDMDL
MODEL 4
REMARK VINA RESULT:      -7.1     27.009     29.916
REMARK  Name = C:\Users\Docking\Desktop\test protocol\1iep_ligandH.pdb
REMARK  8 active torsions:
REMARK  status: ('A' for Active; 'I' for Inactive)
REMARK    1  A    between atoms: _5  and  _11
REMARK    2  A    between atoms: _19  and  _21
REMARK    3  A    between atoms: _22  and  _66
REMARK    4  A    between atoms: _27  and  _30
REMARK    5  A    between atoms: _32  and  _33
REMARK    6  A    between atoms: _38  and  _43
REMARK    7  A    between atoms: _43  and  _46
REMARK    8  A    between atoms: _53  and  _55
REMARK                            x       y       z     vdW  Elec       q    Type
REMARK                         _______ _______ _______ _____ _____    ______ ____
ROOT
ATOM     10  C   UNL     1      -4.765 -22.849  23.253  0.00  0.00    +0.038 A 
ATOM     11  C   UNL     1      -4.356 -23.830  22.314  0.00  0.00    +0.047 A 
ATOM     12  C   UNL     1      -4.431 -23.580  20.883  0.00  0.00    +0.035 A 
ATOM     32  C   UNL     1      -4.926 -22.318  20.443  0.00  0.00    +0.024 A 
ATOM     33  C   UNL     1      -5.348 -21.309  21.383  0.00  0.00    +0.007 A 
ATOM     34  C   UNL     1      -5.278 -21.551  22.796  0.00  0.00    -0.029 A 
ATOM     35  C   UNL     1      -5.750 -20.437  23.758  0.00  0.00    +0.045 C 
ENDROOT
BRANCH  10   9
ATOM      4  C   UNL     1      -6.464 -24.823  27.284  0.00  0.00    +0.077 A 
ATOM      5  C   UNL     1      -7.653 -25.285  26.627  0.00  0.00    +0.048 A 
ATOM      6  C   UNL     1      -7.791 -24.989  25.253  0.00  0.00    +0.116 A 
ATOM      7  N   UNL     1      -6.809 -24.281  24.595  0.00  0.00    -0.223 NA
ATOM      8  C   UNL     1      -5.676 -23.848  25.259  0.00  0.00    +0.220 A 
ATOM      9  N   UNL     1      -4.671 -23.142  24.615  0.00  0.00    -0.283 N 
ATOM     36  H   UNL     1      -3.855 -22.834  25.142  0.00  0.00    +0.155 HD
ATOM     37  N   UNL     1      -5.520 -24.117  26.572  0.00  0.00    -0.214 NA
BRANCH   4   3
ATOM      1  C   UNL     1      -5.037 -24.478  30.910  0.00  0.00    +0.020 A 
ATOM      2  C   UNL     1      -5.286 -24.205  29.513  0.00  0.00    +0.013 A 
ATOM      3  C   UNL     1      -6.172 -25.060  28.733  0.00  0.00    +0.019 A 
ATOM     38  C   UNL     1      -6.795 -26.193  29.402  0.00  0.00    +0.120 A 
ATOM     39  N   UNL     1      -6.535 -26.432  30.748  0.00  0.00    -0.263 NA
ATOM     40  C   UNL     1      -5.683 -25.616  31.508  0.00  0.00    +0.111 A 
ENDBRANCH   4   3
ENDBRANCH  10   9
BRANCH  12  13
ATOM     13  N   UNL     1      -4.037 -24.541  19.883  0.00  0.00    -0.281 N 
ATOM     14  C   UNL     1      -2.759 -24.820  19.426  0.00  0.00    +0.248 C 
ATOM     30  O   UNL     1      -1.777 -24.131  19.658  0.00  0.00    -0.270 OA
ATOM     31  H   UNL     1      -4.792 -25.081  19.459  0.00  0.00    +0.155 HD
BRANCH  14  15
ATOM     15  C   UNL     1      -2.544 -26.031  18.578  0.00  0.00    +0.037 A 
ATOM     16  C   UNL     1      -2.627 -27.380  19.145  0.00  0.00    +0.013 A 
ATOM     17  C   UNL     1      -2.398 -28.531  18.308  0.00  0.00    +0.005 A 
ATOM     18  C   UNL     1      -2.086 -28.338  16.894  0.00  0.00    -0.033 A 
ATOM     28  C   UNL     1      -2.015 -26.989  16.357  0.00  0.00    +0.005 A 
ATOM     29  C   UNL     1      -2.237 -25.859  17.174  0.00  0.00    +0.013 A 
BRANCH  18  19
ATOM     19  C   UNL     1      -1.806 -29.508  15.932  0.00  0.00    +0.119 C 
BRANCH  19  20
ATOM     20  N   UNL     1      -2.399 -30.834  16.277  0.00  0.00    -0.302 NA
ATOM     21  C   UNL     1      -1.419 -31.717  17.054  0.00  0.00    +0.066 C 
ATOM     22  C   UNL     1      -2.064 -33.092  17.427  0.00  0.00    -0.064 C 
ATOM     23  N   UNL     1      -2.532 -33.795  16.152  0.00  0.00    +0.379 N 
ATOM     24  C   UNL     1      -3.086 -35.113  16.494  0.00  0.00    -0.096 C 
ATOM     25  H   UNL     1      -1.637 -33.961  15.509  0.00  0.00    -0.082 HD
ATOM     26  C   UNL     1      -3.505 -32.923  15.372  0.00  0.00    -0.064 C 
ATOM     27  C   UNL     1      -2.865 -31.548  15.032  0.00  0.00    +0.066 C 
ENDBRANCH  19  20
ENDBRANCH  18  19
ENDBRANCH  14  15
ENDBRANCH  12  13
TORSDOF 6
ENDMDL
MODEL 5
REMARK VINA RESULT:      -7.0     22.727     27.100
REMARK  Name = C:\Users\Docking\Desktop\test protocol\1iep_ligandH.pdb
REMARK  8 active torsions:
REMARK  status: ('A' for Active; 'I' for Inactive)
REMARK    1  A    between atoms: _5  and  _11
REMARK    2  A    between atoms: _19  and  _21
REMARK    3  A    between atoms: _22  and  _66
REMARK    4  A    between atoms: _27  and  _30
REMARK    5  A    between atoms: _32  and  _33
REMARK    6  A    between atoms: _38  and  _43
REMARK    7  A    between atoms: _43  and  _46
REMARK    8  A    between atoms: _53  and  _55
REMARK                            x       y       z     vdW  Elec       q    Type
REMARK                         _______ _______ _______ _____ _____    ______ ____
ROOT
ATOM     10  C   UNL     1      18.496 -26.373  13.968  0.00  0.00    +0.038 A 
ATOM     11  C   UNL     1      17.716 -27.063  14.930  0.00  0.00    +0.047 A 
ATOM     12  C   UNL     1      18.276 -27.450  16.216  0.00  0.00    +0.035 A 
ATOM     32  C   UNL     1      19.635 -27.114  16.489  0.00  0.00    +0.024 A 
ATOM     33  C   UNL     1      20.442 -26.414  15.522  0.00  0.00    +0.007 A 
ATOM     34  C   UNL     1      19.895 -26.032  14.251  0.00  0.00    -0.029 A 
ATOM     35  C   UNL     1      20.809 -25.288  13.249  0.00  0.00    +0.045 C 
ENDROOT
BRANCH  10   9
ATOM      4  C   UNL     1      17.356 -27.306   9.400  0.00  0.00    +0.077 A 
ATOM      5  C   UNL     1      18.012 -28.581   9.435  0.00  0.00    +0.048 A 
ATOM      6  C   UNL     1      18.637 -28.957  10.645  0.00  0.00    +0.116 A 
ATOM      7  N   UNL     1      18.602 -28.112  11.733  0.00  0.00    -0.223 NA
ATOM      8  C   UNL     1      17.962 -26.888  11.665  0.00  0.00    +0.220 A 
ATOM      9  N   UNL     1      17.907 -26.026  12.750  0.00  0.00    -0.283 N 
ATOM     36  H   UNL     1      17.431 -25.129  12.657  0.00  0.00    +0.155 HD
ATOM     37  N   UNL     1      17.358 -26.506  10.520  0.00  0.00    -0.214 NA
BRANCH   4   3
ATOM      1  C   UNL     1      15.241 -25.042   7.012  0.00  0.00    +0.020 A 
ATOM      2  C   UNL     1      15.907 -25.515   8.204  0.00  0.00    +0.013 A 
ATOM      3  C   UNL     1      16.647 -26.770   8.195  0.00  0.00    +0.019 A 
ATOM     38  C   UNL     1      16.695 -27.528   6.953  0.00  0.00    +0.120 A 
ATOM     39  N   UNL     1      16.043 -27.049   5.822  0.00  0.00    -0.263 NA
ATOM     40  C   UNL     1      15.326 -25.843   5.820  0.00  0.00    +0.111 A 
ENDBRANCH   4   3
ENDBRANCH  10   9
BRANCH  12  13
ATOM     13  N   UNL     1      17.536 -28.159  17.229  0.00  0.00    -0.281 N 
ATOM     14  C   UNL     1      17.587 -29.510  17.533  0.00  0.00    +0.248 C 
ATOM     30  O   UNL     1      18.124 -30.356  16.833  0.00  0.00    -0.270 OA
ATOM     31  H   UNL     1      16.895 -27.598  17.791  0.00  0.00    +0.155 HD
BRANCH  14  15
ATOM     15  C   UNL     1      16.935 -29.993  18.788  0.00  0.00    +0.037 A 
ATOM     16  C   UNL     1      16.452 -31.371  18.912  0.00  0.00    +0.013 A 
ATOM     17  C   UNL     1      15.812 -31.806  20.128  0.00  0.00    +0.005 A 
ATOM     18  C   UNL     1      15.653 -30.861  21.231  0.00  0.00    -0.033 A 
ATOM     28  C   UNL     1      16.146 -29.502  21.084  0.00  0.00    +0.005 A 
ATOM     29  C   UNL     1      16.773 -29.072  19.893  0.00  0.00    +0.013 A 
BRANCH  18  19
ATOM     19  C   UNL     1      14.963 -31.233  22.558  0.00  0.00    +0.119 C 
BRANCH  19  20
ATOM     20  N   UNL     1      15.668 -32.204  23.446  0.00  0.00    -0.302 NA
ATOM     21  C   UNL     1      14.895 -32.463  24.742  0.00  0.00    +0.066 C 
ATOM     22  C   UNL     1      15.636 -33.498  25.650  0.00  0.00    -0.064 C 
ATOM     23  N   UNL     1      17.046 -32.989  25.954  0.00  0.00    +0.379 N 
ATOM     24  C   UNL     1      17.725 -33.932  26.854  0.00  0.00    -0.096 C 
ATOM     25  H   UNL     1      16.946 -32.018  26.493  0.00  0.00    -0.082 HD
ATOM     26  C   UNL     1      17.821 -32.726  24.670  0.00  0.00    -0.064 C 
ATOM     27  C   UNL     1      17.062 -31.719  23.762  0.00  0.00    +0.066 C 
ENDBRANCH  19  20
ENDBRANCH  18  19
ENDBRANCH  14  15
ENDBRANCH  12  13
TORSDOF 6
ENDMDL
