MODEL 1
REMARK VINA RESULT:      -7.5      0.000      0.000
REMARK  Name = C:\Users\Docking\Desktop\test protocol\1iep_ligandH.pdb
REMARK  8 active torsions:
REMARK  status: ('A' for Active; 'I' for Inactive)
REMARK    1  A    between atoms: _5  and  _11
REMARK    2  A    between atoms: _19  and  _21
REMARK    3  A    between atoms: _22  and  _66
REMARK    4  A    between atoms: _27  and  _30
REMARK    5  A    between atoms: _32  and  _33
REMARK    6  A    between atoms: _38  and  _43
REMARK    7  A    between atoms: _43  and  _46
REMARK    8  A    between atoms: _53  and  _55
REMARK                            x       y       z     vdW  Elec       q    Type
REMARK                         _______ _______ _______ _____ _____    ______ ____
ROOT
ATOM     10  C   UNL     1       3.499  26.569  -0.439  0.00  0.00    +0.038 A 
ATOM     11  C   UNL     1       2.325  27.069  -1.058  0.00  0.00    +0.047 A 
ATOM     12  C   UNL     1       1.046  26.394  -0.902  0.00  0.00    +0.035 A 
ATOM     32  C   UNL     1       0.998  25.213  -0.106  0.00  0.00    +0.024 A 
ATOM     33  C   UNL     1       2.182  24.690   0.530  0.00  0.00    +0.007 A 
ATOM     34  C   UNL     1       3.447  25.350   0.377  0.00  0.00    -0.029 A 
ATOM     35  C   UNL     1       4.685  24.741   1.076  0.00  0.00    +0.045 C 
ENDROOT
BRANCH  10   9
ATOM      4  C   UNL     1       6.554  30.112   0.633  0.00  0.00    +0.077 A 
ATOM      5  C   UNL     1       5.670  30.654   1.624  0.00  0.00    +0.048 A 
ATOM      6  C   UNL     1       4.435  29.996   1.822  0.00  0.00    +0.116 A 
ATOM      7  N   UNL     1       4.120  28.879   1.079  0.00  0.00    -0.223 NA
ATOM      8  C   UNL     1       4.994  28.383   0.130  0.00  0.00    +0.220 A 
ATOM      9  N   UNL     1       4.701  27.257  -0.623  0.00  0.00    -0.283 N 
ATOM     36  H   UNL     1       5.370  26.927  -1.318  0.00  0.00    +0.155 HD
ATOM     37  N   UNL     1       6.179  28.995  -0.079  0.00  0.00    -0.214 NA
BRANCH   4   3
ATOM      1  C   UNL     1      10.252  31.353   0.922  0.00  0.00    +0.020 A 
ATOM      2  C   UNL     1       8.976  30.782   1.285  0.00  0.00    +0.013 A 
ATOM      3  C   UNL     1       7.895  30.694   0.311  0.00  0.00    +0.019 A 
ATOM     38  C   UNL     1       8.142  31.195  -1.033  0.00  0.00    +0.120 A 
ATOM     39  N   UNL     1       9.381  31.741  -1.353  0.00  0.00    -0.263 NA
ATOM     40  C   UNL     1      10.428  31.833  -0.423  0.00  0.00    +0.111 A 
ENDBRANCH   4   3
ENDBRANCH  10   9
BRANCH  12  13
ATOM     13  N   UNL     1      -0.177  26.851  -1.513  0.00  0.00    -0.281 N 
ATOM     14  C   UNL     1      -0.833  26.316  -2.610  0.00  0.00    +0.248 C 
ATOM     30  O   UNL     1      -0.351  25.486  -3.366  0.00  0.00    -0.270 OA
ATOM     31  H   UNL     1      -0.613  27.668  -1.086  0.00  0.00    +0.155 HD
BRANCH  14  15
ATOM     15  C   UNL     1      -2.220  26.779  -2.919  0.00  0.00    +0.037 A 
ATOM     16  C   UNL     1      -3.108  27.275  -1.865  0.00  0.00    +0.013 A 
ATOM     17  C   UNL     1      -4.447  27.700  -2.188  0.00  0.00    +0.005 A 
ATOM     18  C   UNL     1      -4.906  27.632  -3.573  0.00  0.00    -0.033 A 
ATOM     28  C   UNL     1      -4.002  27.141  -4.600  0.00  0.00    +0.005 A 
ATOM     29  C   UNL     1      -2.689  26.722  -4.287  0.00  0.00    +0.013 A 
BRANCH  18  19
ATOM     19  C   UNL     1      -6.325  28.045  -4.006  0.00  0.00    +0.119 C 
BRANCH  19  20
ATOM     20  N   UNL     1      -7.243  28.552  -2.943  0.00  0.00    -0.302 NA
ATOM     21  C   UNL     1      -8.512  27.701  -2.826  0.00  0.00    +0.066 C 
ATOM     22  C   UNL     1      -9.450  28.233  -1.694  0.00  0.00    -0.064 C 
ATOM     23  N   UNL     1      -9.803  29.695  -1.972  0.00  0.00    +0.379 N 
ATOM     24  C   UNL     1     -10.732  30.180  -0.941  0.00  0.00    -0.096 C 
ATOM     25  H   UNL     1     -10.333  29.735  -2.951  0.00  0.00    -0.082 HD
ATOM     26  C   UNL     1      -8.547  30.547  -2.093  0.00  0.00    -0.064 C 
ATOM     27  C   UNL     1      -7.608  29.993  -3.200  0.00  0.00    +0.066 C 
ENDBRANCH  19  20
ENDBRANCH  18  19
ENDBRANCH  14  15
ENDBRANCH  12  13
TORSDOF 6
ENDMDL
MODEL 2
REMARK VINA RESULT:      -7.5      6.890     11.232
REMARK  Name = C:\Users\Docking\Desktop\test protocol\1iep_ligandH.pdb
REMARK  8 active torsions:
REMARK  status: ('A' for Active; 'I' for Inactive)
REMARK    1  A    between atoms: _5  and  _11
REMARK    2  A    between atoms: _19  and  _21
REMARK    3  A    between atoms: _22  and  _66
REMARK    4  A    between atoms: _27  and  _30
REMARK    5  A    between atoms: _32  and  _33
REMARK    6  A    between atoms: _38  and  _43
REMARK    7  A    between atoms: _43  and  _46
REMARK    8  A    between atoms: _53  and  _55
REMARK                            x       y       z     vdW  Elec       q    Type
REMARK                         _______ _______ _______ _____ _____    ______ ____
ROOT
ATOM     10  C   UNL     1      12.221  32.274  -3.335  0.00  0.00    +0.038 A 
ATOM     11  C   UNL     1      11.223  32.220  -2.329  0.00  0.00    +0.047 A 
ATOM     12  C   UNL     1      10.421  31.023  -2.128  0.00  0.00    +0.035 A 
ATOM     32  C   UNL     1      10.665  29.898  -2.969  0.00  0.00    +0.024 A 
ATOM     33  C   UNL     1      11.675  29.936  -3.997  0.00  0.00    +0.007 A 
ATOM     34  C   UNL     1      12.467  31.115  -4.202  0.00  0.00    -0.029 A 
ATOM     35  C   UNL     1      13.531  31.101  -5.324  0.00  0.00    +0.045 C 
ENDROOT
BRANCH  10   9
ATOM      4  C   UNL     1      12.949  36.601  -5.282  0.00  0.00    +0.077 A 
ATOM      5  C   UNL     1      11.768  36.501  -6.090  0.00  0.00    +0.048 A 
ATOM      6  C   UNL     1      11.005  35.317  -5.981  0.00  0.00    +0.116 A 
ATOM      7  N   UNL     1      11.403  34.314  -5.123  0.00  0.00    -0.223 NA
ATOM      8  C   UNL     1      12.548  34.441  -4.359  0.00  0.00    +0.220 A 
ATOM      9  N   UNL     1      12.962  33.449  -3.484  0.00  0.00    -0.283 N 
ATOM     36  H   UNL     1      13.817  33.578  -2.944  0.00  0.00    +0.155 HD
ATOM     37  N   UNL     1      13.295  35.562  -4.446  0.00  0.00    -0.214 NA
BRANCH   4   3
ATOM      1  C   UNL     1      14.287  40.276  -5.319  0.00  0.00    +0.020 A 
ATOM      2  C   UNL     1      13.367  39.162  -5.319  0.00  0.00    +0.013 A 
ATOM      3  C   UNL     1      13.858  37.791  -5.283  0.00  0.00    +0.019 A 
ATOM     38  C   UNL     1      15.297  37.579  -5.247  0.00  0.00    +0.120 A 
ATOM     39  N   UNL     1      16.159  38.671  -5.248  0.00  0.00    -0.263 NA
ATOM     40  C   UNL     1      15.698  39.995  -5.284  0.00  0.00    +0.111 A 
ENDBRANCH   4   3
ENDBRANCH  10   9
BRANCH  12  13
ATOM     13  N   UNL     1       9.389  30.913  -1.128  0.00  0.00    -0.281 N 
ATOM     14  C   UNL     1       8.182  31.591  -1.071  0.00  0.00    +0.248 C 
ATOM     30  O   UNL     1       7.901  32.559  -1.762  0.00  0.00    -0.270 OA
ATOM     31  H   UNL     1       9.569  30.254  -0.370  0.00  0.00    +0.155 HD
BRANCH  14  15
ATOM     15  C   UNL     1       7.144  31.138  -0.096  0.00  0.00    +0.037 A 
ATOM     16  C   UNL     1       7.511  30.405   1.118  0.00  0.00    +0.013 A 
ATOM     17  C   UNL     1       6.489  29.964   2.034  0.00  0.00    +0.005 A 
ATOM     18  C   UNL     1       5.088  30.258   1.739  0.00  0.00    -0.033 A 
ATOM     28  C   UNL     1       4.753  30.992   0.530  0.00  0.00    +0.005 A 
ATOM     29  C   UNL     1       5.752  31.425  -0.370  0.00  0.00    +0.013 A 
BRANCH  18  19
ATOM     19  C   UNL     1       3.930  29.809   2.649  0.00  0.00    +0.119 C 
BRANCH  19  20
ATOM     20  N   UNL     1       2.681  30.627   2.620  0.00  0.00    -0.302 NA
ATOM     21  C   UNL     1       2.745  31.807   3.594  0.00  0.00    +0.066 C 
ATOM     22  C   UNL     1       1.439  32.665   3.535  0.00  0.00    -0.064 C 
ATOM     23  N   UNL     1       0.233  31.775   3.840  0.00  0.00    +0.379 N 
ATOM     24  C   UNL     1      -0.990  32.591   3.843  0.00  0.00    -0.096 C 
ATOM     25  H   UNL     1       0.368  31.364   4.868  0.00  0.00    -0.082 HD
ATOM     26  C   UNL     1       0.163  30.598   2.878  0.00  0.00    -0.064 C 
ATOM     27  C   UNL     1       1.477  29.769   2.923  0.00  0.00    +0.066 C 
ENDBRANCH  19  20
ENDBRANCH  18  19
ENDBRANCH  14  15
ENDBRANCH  12  13
TORSDOF 6
ENDMDL
MODEL 3
REMARK VINA RESULT:      -7.5      6.634     11.241
REMARK  Name = C:\Users\Docking\Desktop\test protocol\1iep_ligandH.pdb
REMARK  8 active torsions:
REMARK  status: ('A' for Active; 'I' for Inactive)
REMARK    1  A    between atoms: _5  and  _11
REMARK    2  A    between atoms: _19  and  _21
REMARK    3  A    between atoms: _22  and  _66
REMARK    4  A    between atoms: _27  and  _30
REMARK    5  A    between atoms: _32  and  _33
REMARK    6  A    between atoms: _38  and  _43
REMARK    7  A    between atoms: _43  and  _46
REMARK    8  A    between atoms: _53  and  _55
REMARK                            x       y       z     vdW  Elec       q    Type
REMARK                         _______ _______ _______ _____ _____    ______ ____
ROOT
ATOM     10  C   UNL     1      12.192  32.134  -3.416  0.00  0.00    +0.038 A 
ATOM     11  C   UNL     1      11.015  32.065  -2.628  0.00  0.00    +0.047 A 
ATOM     12  C   UNL     1      10.251  30.832  -2.522  0.00  0.00    +0.035 A 
ATOM     32  C   UNL     1      10.717  29.686  -3.230  0.00  0.00    +0.024 A 
ATOM     33  C   UNL     1      11.911  29.738  -4.037  0.00  0.00    +0.007 A 
ATOM     34  C   UNL     1      12.667  30.953  -4.147  0.00  0.00    -0.029 A 
ATOM     35  C   UNL     1      13.935  30.953  -5.031  0.00  0.00    +0.045 C 
ENDROOT
BRANCH  10   9
ATOM      4  C   UNL     1      12.937  36.489  -5.290  0.00  0.00    +0.077 A 
ATOM      5  C   UNL     1      11.870  36.330  -6.235  0.00  0.00    +0.048 A 
ATOM      6  C   UNL     1      11.158  35.110  -6.211  0.00  0.00    +0.116 A 
ATOM      7  N   UNL     1      11.497  34.129  -5.305  0.00  0.00    -0.223 NA
ATOM      8  C   UNL     1      12.533  34.314  -4.408  0.00  0.00    +0.220 A 
ATOM      9  N   UNL     1      12.886  33.344  -3.482  0.00  0.00    -0.283 N 
ATOM     36  H   UNL     1      13.662  33.516  -2.842  0.00  0.00    +0.155 HD
ATOM     37  N   UNL     1      13.229  35.470  -4.412  0.00  0.00    -0.214 NA
BRANCH   4   3
ATOM      1  C   UNL     1      14.154  40.203  -5.462  0.00  0.00    +0.020 A 
ATOM      2  C   UNL     1      13.300  39.043  -5.579  0.00  0.00    +0.013 A 
ATOM      3  C   UNL     1      13.780  37.723  -5.190  0.00  0.00    +0.019 A 
ATOM     38  C   UNL     1      15.138  37.609  -4.681  0.00  0.00    +0.120 A 
ATOM     39  N   UNL     1      15.938  38.744  -4.581  0.00  0.00    -0.263 NA
ATOM     40  C   UNL     1      15.488  40.019  -4.954  0.00  0.00    +0.111 A 
ENDBRANCH   4   3
ENDBRANCH  10   9
BRANCH  12  13
ATOM     13  N   UNL     1       9.044  30.705  -1.743  0.00  0.00    -0.281 N 
ATOM     14  C   UNL     1       8.929  30.484  -0.380  0.00  0.00    +0.248 C 
ATOM     30  O   UNL     1       9.853  30.149   0.346  0.00  0.00    -0.270 OA
ATOM     31  H   UNL     1       8.168  30.787  -2.259  0.00  0.00    +0.155 HD
BRANCH  14  15
ATOM     15  C   UNL     1       7.591  30.646   0.267  0.00  0.00    +0.037 A 
ATOM     16  C   UNL     1       7.414  30.439   1.706  0.00  0.00    +0.013 A 
ATOM     17  C   UNL     1       6.109  30.585   2.302  0.00  0.00    +0.005 A 
ATOM     18  C   UNL     1       4.972  30.942   1.458  0.00  0.00    -0.033 A 
ATOM     28  C   UNL     1       5.178  31.147   0.034  0.00  0.00    +0.005 A 
ATOM     29  C   UNL     1       6.454  31.004  -0.554  0.00  0.00    +0.013 A 
BRANCH  18  19
ATOM     19  C   UNL     1       3.541  31.098   2.005  0.00  0.00    +0.119 C 
BRANCH  19  20
ATOM     20  N   UNL     1       2.890  29.881   2.576  0.00  0.00    -0.302 NA
ATOM     21  C   UNL     1       3.078  28.655   1.679  0.00  0.00    +0.066 C 
ATOM     22  C   UNL     1       2.411  27.386   2.302  0.00  0.00    -0.064 C 
ATOM     23  N   UNL     1       0.925  27.659   2.541  0.00  0.00    +0.379 N 
ATOM     24  C   UNL     1       0.283  26.449   3.073  0.00  0.00    -0.096 C 
ATOM     25  H   UNL     1       0.460  27.883   1.553  0.00  0.00    -0.082 HD
ATOM     26  C   UNL     1       0.729  28.879   3.430  0.00  0.00    -0.064 C 
ATOM     27  C   UNL     1       1.421  30.128   2.816  0.00  0.00    +0.066 C 
ENDBRANCH  19  20
ENDBRANCH  18  19
ENDBRANCH  14  15
ENDBRANCH  12  13
TORSDOF 6
ENDMDL
MODEL 4
REMARK VINA RESULT:      -7.4     34.326     43.955
REMARK  Name = C:\Users\Docking\Desktop\test protocol\1iep_ligandH.pdb
REMARK  8 active torsions:
REMARK  status: ('A' for Active; 'I' for Inactive)
REMARK    1  A    between atoms: _5  and  _11
REMARK    2  A    between atoms: _19  and  _21
REMARK    3  A    between atoms: _22  and  _66
REMARK    4  A    between atoms: _27  and  _30
REMARK    5  A    between atoms: _32  and  _33
REMARK    6  A    between atoms: _38  and  _43
REMARK    7  A    between atoms: _43  and  _46
REMARK    8  A    between atoms: _53  and  _55
REMARK                            x       y       z     vdW  Elec       q    Type
REMARK                         _______ _______ _______ _____ _____    ______ ____
ROOT
ATOM     10  C   UNL     1      25.443  56.703  12.976  0.00  0.00    +0.038 A 
ATOM     11  C   UNL     1      26.795  57.126  12.898  0.00  0.00    +0.047 A 
ATOM     12  C   UNL     1      27.427  57.832  14.001  0.00  0.00    +0.035 A 
ATOM     32  C   UNL     1      26.654  58.088  15.171  0.00  0.00    +0.024 A 
ATOM     33  C   UNL     1      25.279  57.666  15.267  0.00  0.00    +0.007 A 
ATOM     34  C   UNL     1      24.649  56.972  14.180  0.00  0.00    -0.029 A 
ATOM     35  C   UNL     1      23.169  56.549  14.336  0.00  0.00    +0.045 C 
ENDROOT
BRANCH  10   9
ATOM      4  C   UNL     1      24.672  52.724  10.405  0.00  0.00    +0.077 A 
ATOM      5  C   UNL     1      25.467  51.926  11.292  0.00  0.00    +0.048 A 
ATOM      6  C   UNL     1      26.064  52.578  12.394  0.00  0.00    +0.116 A 
ATOM      7  N   UNL     1      25.872  53.930  12.585  0.00  0.00    -0.223 NA
ATOM      8  C   UNL     1      25.100  54.671  11.709  0.00  0.00    +0.220 A 
ATOM      9  N   UNL     1      24.886  56.029  11.886  0.00  0.00    -0.283 N 
ATOM     36  H   UNL     1      24.317  56.542  11.214  0.00  0.00    +0.155 HD
ATOM     37  N   UNL     1      24.521  54.071  10.648  0.00  0.00    -0.214 NA
BRANCH   4   3
ATOM      1  C   UNL     1      22.734  50.362   7.962  0.00  0.00    +0.020 A 
ATOM      2  C   UNL     1      23.398  50.841   9.153  0.00  0.00    +0.013 A 
ATOM      3  C   UNL     1      23.974  52.179   9.197  0.00  0.00    +0.019 A 
ATOM     38  C   UNL     1      23.861  53.014   8.011  0.00  0.00    +0.120 A 
ATOM     39  N   UNL     1      23.217  52.525   6.878  0.00  0.00    -0.263 NA
ATOM     40  C   UNL     1      22.660  51.239   6.823  0.00  0.00    +0.111 A 
ENDBRANCH   4   3
ENDBRANCH  10   9
BRANCH  12  13
ATOM     13  N   UNL     1      28.793  58.293  13.976  0.00  0.00    -0.281 N 
ATOM     14  C   UNL     1      29.940  57.573  14.267  0.00  0.00    +0.248 C 
ATOM     30  O   UNL     1      29.950  56.474  14.803  0.00  0.00    -0.270 OA
ATOM     31  H   UNL     1      28.931  59.268  13.712  0.00  0.00    +0.155 HD
BRANCH  14  15
ATOM     15  C   UNL     1      31.270  58.164  13.927  0.00  0.00    +0.037 A 
ATOM     16  C   UNL     1      31.534  58.726  12.599  0.00  0.00    +0.013 A 
ATOM     17  C   UNL     1      32.831  59.275  12.292  0.00  0.00    +0.005 A 
ATOM     18  C   UNL     1      33.874  59.267  13.315  0.00  0.00    -0.033 A 
ATOM     28  C   UNL     1      33.583  58.708  14.625  0.00  0.00    +0.005 A 
ATOM     29  C   UNL     1      32.313  58.168  14.930  0.00  0.00    +0.013 A 
BRANCH  18  19
ATOM     19  C   UNL     1      35.293  59.812  13.068  0.00  0.00    +0.119 C 
BRANCH  19  20
ATOM     20  N   UNL     1      35.849  59.671  11.689  0.00  0.00    -0.302 NA
ATOM     21  C   UNL     1      36.203  58.219  11.358  0.00  0.00    +0.066 C 
ATOM     22  C   UNL     1      36.763  58.087   9.904  0.00  0.00    -0.064 C 
ATOM     23  N   UNL     1      37.986  58.992   9.747  0.00  0.00    +0.379 N 
ATOM     24  C   UNL     1      38.549  58.826   8.399  0.00  0.00    -0.096 C 
ATOM     25  H   UNL     1      38.754  58.651  10.479  0.00  0.00    -0.082 HD
ATOM     26  C   UNL     1      37.643  60.438  10.077  0.00  0.00    -0.064 C 
ATOM     27  C   UNL     1      37.060  60.554  11.514  0.00  0.00    +0.066 C 
ENDBRANCH  19  20
ENDBRANCH  18  19
ENDBRANCH  14  15
ENDBRANCH  12  13
TORSDOF 6
ENDMDL
MODEL 5
REMARK VINA RESULT:      -7.4      8.558     17.036
REMARK  Name = C:\Users\Docking\Desktop\test protocol\1iep_ligandH.pdb
REMARK  8 active torsions:
REMARK  status: ('A' for Active; 'I' for Inactive)
REMARK    1  A    between atoms: _5  and  _11
REMARK    2  A    between atoms: _19  and  _21
REMARK    3  A    between atoms: _22  and  _66
REMARK    4  A    between atoms: _27  and  _30
REMARK    5  A    between atoms: _32  and  _33
REMARK    6  A    between atoms: _38  and  _43
REMARK    7  A    between atoms: _43  and  _46
REMARK    8  A    between atoms: _53  and  _55
REMARK                            x       y       z     vdW  Elec       q    Type
REMARK                         _______ _______ _______ _____ _____    ______ ____
ROOT
ATOM     10  C   UNL     1      10.511  30.717  -2.742  0.00  0.00    +0.038 A 
ATOM     11  C   UNL     1      10.973  32.025  -3.036  0.00  0.00    +0.047 A 
ATOM     12  C   UNL     1      12.211  32.238  -3.770  0.00  0.00    +0.035 A 
ATOM     32  C   UNL     1      12.952  31.096  -4.191  0.00  0.00    +0.024 A 
ATOM     33  C   UNL     1      12.498  29.759  -3.900  0.00  0.00    +0.007 A 
ATOM     34  C   UNL     1      11.279  29.543  -3.174  0.00  0.00    -0.029 A 
ATOM     35  C   UNL     1      10.843  28.087  -2.884  0.00  0.00    +0.045 C 
ENDROOT
BRANCH  10   9
ATOM      4  C   UNL     1       7.982  30.700   1.338  0.00  0.00    +0.077 A 
ATOM      5  C   UNL     1       9.145  30.981   2.129  0.00  0.00    +0.048 A 
ATOM      6  C   UNL     1      10.376  31.115   1.449  0.00  0.00    +0.116 A 
ATOM      7  N   UNL     1      10.428  30.977   0.079  0.00  0.00    -0.223 NA
ATOM      8  C   UNL     1       9.288  30.705  -0.655  0.00  0.00    +0.220 A 
ATOM      9  N   UNL     1       9.316  30.570  -2.034  0.00  0.00    -0.283 N 
ATOM     36  H   UNL     1       8.454  30.361  -2.538  0.00  0.00    +0.155 HD
ATOM     37  N   UNL     1       8.101  30.570  -0.028  0.00  0.00    -0.214 NA
BRANCH   4   3
ATOM      1  C   UNL     1       4.972  30.531   3.830  0.00  0.00    +0.020 A 
ATOM      2  C   UNL     1       6.316  30.703   3.328  0.00  0.00    +0.013 A 
ATOM      3  C   UNL     1       6.609  30.533   1.911  0.00  0.00    +0.019 A 
ATOM     38  C   UNL     1       5.511  30.187   1.021  0.00  0.00    +0.120 A 
ATOM     39  N   UNL     1       4.227  30.027   1.533  0.00  0.00    -0.263 NA
ATOM     40  C   UNL     1       3.934  30.186   2.896  0.00  0.00    +0.111 A 
ENDBRANCH   4   3
ENDBRANCH  10   9
BRANCH  12  13
ATOM     13  N   UNL     1      12.734  33.543  -4.090  0.00  0.00    -0.281 N 
ATOM     14  C   UNL     1      12.210  34.479  -4.968  0.00  0.00    +0.248 C 
ATOM     30  O   UNL     1      11.322  34.248  -5.775  0.00  0.00    -0.270 OA
ATOM     31  H   UNL     1      13.595  33.810  -3.613  0.00  0.00    +0.155 HD
BRANCH  14  15
ATOM     15  C   UNL     1      12.762  35.868  -4.957  0.00  0.00    +0.037 A 
ATOM     16  C   UNL     1      12.363  36.852  -5.965  0.00  0.00    +0.013 A 
ATOM     17  C   UNL     1      12.924  38.180  -5.942  0.00  0.00    +0.005 A 
ATOM     18  C   UNL     1      13.890  38.531  -4.904  0.00  0.00    -0.033 A 
ATOM     28  C   UNL     1      14.265  37.536  -3.913  0.00  0.00    +0.005 A 
ATOM     29  C   UNL     1      13.718  36.234  -3.933  0.00  0.00    +0.013 A 
BRANCH  18  19
ATOM     19  C   UNL     1      14.555  39.917  -4.815  0.00  0.00    +0.119 C 
BRANCH  19  20
ATOM     20  N   UNL     1      16.047  39.964  -4.868  0.00  0.00    -0.302 NA
ATOM     21  C   UNL     1      16.672  39.963  -3.470  0.00  0.00    +0.066 C 
ATOM     22  C   UNL     1      18.233  39.989  -3.544  0.00  0.00    -0.064 C 
ATOM     23  N   UNL     1      18.682  41.218  -4.336  0.00  0.00    +0.379 N 
ATOM     24  C   UNL     1      20.151  41.278  -4.358  0.00  0.00    -0.096 C 
ATOM     25  H   UNL     1      18.315  42.122  -3.796  0.00  0.00    -0.082 HD
ATOM     26  C   UNL     1      18.064  41.229  -5.727  0.00  0.00    -0.064 C 
ATOM     27  C   UNL     1      16.513  41.173  -5.642  0.00  0.00    +0.066 C 
ENDBRANCH  19  20
ENDBRANCH  18  19
ENDBRANCH  14  15
ENDBRANCH  12  13
TORSDOF 6
ENDMDL
