MODEL 1
REMARK VINA RESULT:      -8.8      0.000      0.000
REMARK  Name = C:\Users\Docking\Desktop\test protocol\1iep_ligandH.pdb
REMARK  8 active torsions:
REMARK  status: ('A' for Active; 'I' for Inactive)
REMARK    1  A    between atoms: _5  and  _11
REMARK    2  A    between atoms: _19  and  _21
REMARK    3  A    between atoms: _22  and  _66
REMARK    4  A    between atoms: _27  and  _30
REMARK    5  A    between atoms: _32  and  _33
REMARK    6  A    between atoms: _38  and  _43
REMARK    7  A    between atoms: _43  and  _46
REMARK    8  A    between atoms: _53  and  _55
REMARK                            x       y       z     vdW  Elec       q    Type
REMARK                         _______ _______ _______ _____ _____    ______ ____
ROOT
ATOM     10  C   UNL     1      15.167  22.523   7.060  0.00  0.00    +0.038 A 
ATOM     11  C   UNL     1      16.201  22.438   8.028  0.00  0.00    +0.047 A 
ATOM     12  C   UNL     1      17.234  21.419   7.939  0.00  0.00    +0.035 A 
ATOM     32  C   UNL     1      17.186  20.502   6.849  0.00  0.00    +0.024 A 
ATOM     33  C   UNL     1      16.142  20.572   5.857  0.00  0.00    +0.007 A 
ATOM     34  C   UNL     1      15.119  21.574   5.941  0.00  0.00    -0.029 A 
ATOM     35  C   UNL     1      14.020  21.599   4.852  0.00  0.00    +0.045 C 
ENDROOT
BRANCH  10   9
ATOM      4  C   UNL     1      11.046  24.212   8.849  0.00  0.00    +0.077 A 
ATOM      5  C   UNL     1      10.783  22.991   9.554  0.00  0.00    +0.048 A 
ATOM      6  C   UNL     1      11.729  21.949   9.424  0.00  0.00    +0.116 A 
ATOM      7  N   UNL     1      12.852  22.128   8.645  0.00  0.00    -0.223 NA
ATOM      8  C   UNL     1      13.075  23.318   7.977  0.00  0.00    +0.220 A 
ATOM      9  N   UNL     1      14.201  23.522   7.195  0.00  0.00    -0.283 N 
ATOM     36  H   UNL     1      14.325  24.411   6.712  0.00  0.00    +0.155 HD
ATOM     37  N   UNL     1      12.185  24.327   8.084  0.00  0.00    -0.214 NA
BRANCH   4   3
ATOM      1  C   UNL     1       7.861  26.481   8.914  0.00  0.00    +0.020 A 
ATOM      2  C   UNL     1       8.688  25.298   8.873  0.00  0.00    +0.013 A 
ATOM      3  C   UNL     1      10.142  25.405   8.889  0.00  0.00    +0.019 A 
ATOM     38  C   UNL     1      10.731  26.734   8.948  0.00  0.00    +0.120 A 
ATOM     39  N   UNL     1       9.909  27.856   8.985  0.00  0.00    -0.263 NA
ATOM     40  C   UNL     1       8.509  27.765   8.968  0.00  0.00    +0.111 A 
ENDBRANCH   4   3
ENDBRANCH  10   9
BRANCH  12  13
ATOM     13  N   UNL     1      18.303  21.279   8.896  0.00  0.00    -0.281 N 
ATOM     14  C   UNL     1      19.658  21.487   8.696  0.00  0.00    +0.248 C 
ATOM     30  O   UNL     1      20.182  21.618   7.600  0.00  0.00    -0.270 OA
ATOM     31  H   UNL     1      18.028  20.993   9.836  0.00  0.00    +0.155 HD
BRANCH  14  15
ATOM     15  C   UNL     1      20.563  21.542   9.884  0.00  0.00    +0.037 A 
ATOM     16  C   UNL     1      20.597  20.455  10.865  0.00  0.00    +0.013 A 
ATOM     17  C   UNL     1      21.468  20.541  12.011  0.00  0.00    +0.005 A 
ATOM     18  C   UNL     1      22.313  21.721  12.181  0.00  0.00    -0.033 A 
ATOM     28  C   UNL     1      22.263  22.783  11.190  0.00  0.00    +0.005 A 
ATOM     29  C   UNL     1      21.410  22.702  10.066  0.00  0.00    +0.013 A 
BRANCH  18  19
ATOM     19  C   UNL     1      23.256  21.908  13.384  0.00  0.00    +0.119 C 
BRANCH  19  20
ATOM     20  N   UNL     1      22.686  22.547  14.607  0.00  0.00    -0.302 NA
ATOM     21  C   UNL     1      22.640  24.073  14.489  0.00  0.00    +0.066 C 
ATOM     22  C   UNL     1      22.020  24.725  15.768  0.00  0.00    -0.064 C 
ATOM     23  N   UNL     1      22.828  24.300  16.996  0.00  0.00    +0.379 N 
ATOM     24  C   UNL     1      22.282  24.957  18.193  0.00  0.00    -0.096 C 
ATOM     25  H   UNL     1      23.872  24.664  16.856  0.00  0.00    -0.082 HD
ATOM     26  C   UNL     1      22.880  22.784  17.119  0.00  0.00    -0.064 C 
ATOM     27  C   UNL     1      23.470  22.145  15.831  0.00  0.00    +0.066 C 
ENDBRANCH  19  20
ENDBRANCH  18  19
ENDBRANCH  14  15
ENDBRANCH  12  13
TORSDOF 6
ENDMDL
MODEL 2
REMARK VINA RESULT:      -8.3      6.596      9.452
REMARK  Name = C:\Users\Docking\Desktop\test protocol\1iep_ligandH.pdb
REMARK  8 active torsions:
REMARK  status: ('A' for Active; 'I' for Inactive)
REMARK    1  A    between atoms: _5  and  _11
REMARK    2  A    between atoms: _19  and  _21
REMARK    3  A    between atoms: _22  and  _66
REMARK    4  A    between atoms: _27  and  _30
REMARK    5  A    between atoms: _32  and  _33
REMARK    6  A    between atoms: _38  and  _43
REMARK    7  A    between atoms: _43  and  _46
REMARK    8  A    between atoms: _53  and  _55
REMARK                            x       y       z     vdW  Elec       q    Type
REMARK                         _______ _______ _______ _____ _____    ______ ____
ROOT
ATOM     10  C   UNL     1      11.964  22.874  10.398  0.00  0.00    +0.038 A 
ATOM     11  C   UNL     1      13.032  22.734   9.476  0.00  0.00    +0.047 A 
ATOM     12  C   UNL     1      13.411  23.825   8.592  0.00  0.00    +0.035 A 
ATOM     32  C   UNL     1      12.682  25.047   8.675  0.00  0.00    +0.024 A 
ATOM     33  C   UNL     1      11.592  25.206   9.606  0.00  0.00    +0.007 A 
ATOM     34  C   UNL     1      11.212  24.133  10.478  0.00  0.00    -0.029 A 
ATOM     35  C   UNL     1      10.031  24.357  11.452  0.00  0.00    +0.045 C 
ENDROOT
BRANCH  10   9
ATOM      4  C   UNL     1       9.420  18.933  11.413  0.00  0.00    +0.077 A 
ATOM      5  C   UNL     1       8.646  19.051  10.210  0.00  0.00    +0.048 A 
ATOM      6  C   UNL     1       8.930  20.144   9.361  0.00  0.00    +0.116 A 
ATOM      7  N   UNL     1       9.915  21.046   9.699  0.00  0.00    -0.223 NA
ATOM      8  C   UNL     1      10.641  20.904  10.867  0.00  0.00    +0.220 A 
ATOM      9  N   UNL     1      11.643  21.794  11.223  0.00  0.00    -0.283 N 
ATOM     36  H   UNL     1      12.151  21.659  12.097  0.00  0.00    +0.155 HD
ATOM     37  N   UNL     1      10.389  19.869  11.696  0.00  0.00    -0.214 NA
BRANCH   4   3
ATOM      1  C   UNL     1       9.749  16.697  14.606  0.00  0.00    +0.020 A 
ATOM      2  C   UNL     1       9.959  17.784  13.677  0.00  0.00    +0.013 A 
ATOM      3  C   UNL     1       9.240  17.831  12.410  0.00  0.00    +0.019 A 
ATOM     38  C   UNL     1       8.309  16.754  12.110  0.00  0.00    +0.120 A 
ATOM     39  N   UNL     1       8.128  15.719  13.023  0.00  0.00    -0.263 NA
ATOM     40  C   UNL     1       8.815  15.663  14.245  0.00  0.00    +0.111 A 
ENDBRANCH   4   3
ENDBRANCH  10   9
BRANCH  12  13
ATOM     13  N   UNL     1      14.482  23.739   7.630  0.00  0.00    -0.281 N 
ATOM     14  C   UNL     1      14.446  23.180   6.363  0.00  0.00    +0.248 C 
ATOM     30  O   UNL     1      13.539  22.476   5.944  0.00  0.00    -0.270 OA
ATOM     31  H   UNL     1      15.376  24.138   7.918  0.00  0.00    +0.155 HD
BRANCH  14  15
ATOM     15  C   UNL     1      15.588  23.428   5.431  0.00  0.00    +0.037 A 
ATOM     16  C   UNL     1      15.370  23.617   3.995  0.00  0.00    +0.013 A 
ATOM     17  C   UNL     1      16.491  23.837   3.116  0.00  0.00    +0.005 A 
ATOM     18  C   UNL     1      17.841  23.872   3.672  0.00  0.00    -0.033 A 
ATOM     28  C   UNL     1      18.029  23.687   5.102  0.00  0.00    +0.005 A 
ATOM     29  C   UNL     1      16.932  23.469   5.966  0.00  0.00    +0.013 A 
BRANCH  18  19
ATOM     19  C   UNL     1      19.098  24.080   2.806  0.00  0.00    +0.119 C 
BRANCH  19  20
ATOM     20  N   UNL     1      19.407  25.476   2.374  0.00  0.00    -0.302 NA
ATOM     21  C   UNL     1      20.912  25.754   2.364  0.00  0.00    +0.066 C 
ATOM     22  C   UNL     1      21.219  27.212   1.888  0.00  0.00    -0.064 C 
ATOM     23  N   UNL     1      20.491  28.205   2.795  0.00  0.00    +0.379 N 
ATOM     24  C   UNL     1      20.823  29.578   2.387  0.00  0.00    -0.096 C 
ATOM     25  H   UNL     1      20.874  28.059   3.832  0.00  0.00    -0.082 HD
ATOM     26  C   UNL     1      18.993  27.934   2.814  0.00  0.00    -0.064 C 
ATOM     27  C   UNL     1      18.701  26.474   3.260  0.00  0.00    +0.066 C 
ENDBRANCH  19  20
ENDBRANCH  18  19
ENDBRANCH  14  15
ENDBRANCH  12  13
TORSDOF 6
ENDMDL
MODEL 3
REMARK VINA RESULT:      -8.3      5.702      8.428
REMARK  Name = C:\Users\Docking\Desktop\test protocol\1iep_ligandH.pdb
REMARK  8 active torsions:
REMARK  status: ('A' for Active; 'I' for Inactive)
REMARK    1  A    between atoms: _5  and  _11
REMARK    2  A    between atoms: _19  and  _21
REMARK    3  A    between atoms: _22  and  _66
REMARK    4  A    between atoms: _27  and  _30
REMARK    5  A    between atoms: _32  and  _33
REMARK    6  A    between atoms: _38  and  _43
REMARK    7  A    between atoms: _43  and  _46
REMARK    8  A    between atoms: _53  and  _55
REMARK                            x       y       z     vdW  Elec       q    Type
REMARK                         _______ _______ _______ _____ _____    ______ ____
ROOT
ATOM     10  C   UNL     1      12.020  23.465   8.575  0.00  0.00    +0.038 A 
ATOM     11  C   UNL     1      13.197  23.678   7.812  0.00  0.00    +0.047 A 
ATOM     12  C   UNL     1      14.502  23.283   8.317  0.00  0.00    +0.035 A 
ATOM     32  C   UNL     1      14.573  22.669   9.601  0.00  0.00    +0.024 A 
ATOM     33  C   UNL     1      13.387  22.445  10.390  0.00  0.00    +0.007 A 
ATOM     34  C   UNL     1      12.096  22.836   9.899  0.00  0.00    -0.029 A 
ATOM     35  C   UNL     1      10.860  22.577  10.791  0.00  0.00    +0.045 C 
ENDROOT
BRANCH  10   9
ATOM      4  C   UNL     1       8.605  26.750   7.811  0.00  0.00    +0.077 A 
ATOM      5  C   UNL     1       9.314  27.747   8.560  0.00  0.00    +0.048 A 
ATOM      6  C   UNL     1      10.550  27.372   9.131  0.00  0.00    +0.116 A 
ATOM      7  N   UNL     1      11.032  26.092   8.960  0.00  0.00    -0.223 NA
ATOM      8  C   UNL     1      10.323  25.154   8.233  0.00  0.00    +0.220 A 
ATOM      9  N   UNL     1      10.792  23.864   8.042  0.00  0.00    -0.283 N 
ATOM     36  H   UNL     1      10.235  23.199   7.505  0.00  0.00    +0.155 HD
ATOM     37  N   UNL     1       9.139  25.487   7.678  0.00  0.00    -0.214 NA
BRANCH   4   3
ATOM      1  C   UNL     1       4.787  27.326   7.186  0.00  0.00    +0.020 A 
ATOM      2  C   UNL     1       6.032  27.088   7.879  0.00  0.00    +0.013 A 
ATOM      3  C   UNL     1       7.287  26.994   7.143  0.00  0.00    +0.019 A 
ATOM     38  C   UNL     1       7.247  27.147   5.697  0.00  0.00    +0.120 A 
ATOM     39  N   UNL     1       6.033  27.374   5.057  0.00  0.00    -0.263 NA
ATOM     40  C   UNL     1       4.818  27.465   5.754  0.00  0.00    +0.111 A 
ENDBRANCH   4   3
ENDBRANCH  10   9
BRANCH  12  13
ATOM     13  N   UNL     1      15.732  23.481   7.591  0.00  0.00    -0.281 N 
ATOM     14  C   UNL     1      16.398  22.577   6.780  0.00  0.00    +0.248 C 
ATOM     30  O   UNL     1      16.147  21.383   6.724  0.00  0.00    -0.270 OA
ATOM     31  H   UNL     1      16.165  24.400   7.687  0.00  0.00    +0.155 HD
BRANCH  14  15
ATOM     15  C   UNL     1      17.514  23.069   5.915  0.00  0.00    +0.037 A 
ATOM     16  C   UNL     1      18.792  22.356   5.845  0.00  0.00    +0.013 A 
ATOM     17  C   UNL     1      19.858  22.861   5.017  0.00  0.00    +0.005 A 
ATOM     18  C   UNL     1      19.649  24.086   4.249  0.00  0.00    -0.033 A 
ATOM     28  C   UNL     1      18.369  24.770   4.332  0.00  0.00    +0.005 A 
ATOM     29  C   UNL     1      17.323  24.279   5.144  0.00  0.00    +0.013 A 
BRANCH  18  19
ATOM     19  C   UNL     1      20.737  24.709   3.355  0.00  0.00    +0.119 C 
BRANCH  19  20
ATOM     20  N   UNL     1      20.323  25.819   2.447  0.00  0.00    -0.302 NA
ATOM     21  C   UNL     1      20.104  25.336   1.010  0.00  0.00    +0.066 C 
ATOM     22  C   UNL     1      19.650  26.506   0.079  0.00  0.00    -0.064 C 
ATOM     23  N   UNL     1      20.694  27.622   0.120  0.00  0.00    +0.379 N 
ATOM     24  C   UNL     1      20.299  28.699  -0.799  0.00  0.00    -0.096 C 
ATOM     25  H   UNL     1      21.657  27.198  -0.249  0.00  0.00    -0.082 HD
ATOM     26  C   UNL     1      20.921  28.107   1.545  0.00  0.00    -0.064 C 
ATOM     27  C   UNL     1      21.343  26.931   2.469  0.00  0.00    +0.066 C 
ENDBRANCH  19  20
ENDBRANCH  18  19
ENDBRANCH  14  15
ENDBRANCH  12  13
TORSDOF 6
ENDMDL
MODEL 4
REMARK VINA RESULT:      -8.3      7.149     12.003
REMARK  Name = C:\Users\Docking\Desktop\test protocol\1iep_ligandH.pdb
REMARK  8 active torsions:
REMARK  status: ('A' for Active; 'I' for Inactive)
REMARK    1  A    between atoms: _5  and  _11
REMARK    2  A    between atoms: _19  and  _21
REMARK    3  A    between atoms: _22  and  _66
REMARK    4  A    between atoms: _27  and  _30
REMARK    5  A    between atoms: _32  and  _33
REMARK    6  A    between atoms: _38  and  _43
REMARK    7  A    between atoms: _43  and  _46
REMARK    8  A    between atoms: _53  and  _55
REMARK                            x       y       z     vdW  Elec       q    Type
REMARK                         _______ _______ _______ _____ _____    ______ ____
ROOT
ATOM     10  C   UNL     1      20.125  25.632   4.039  0.00  0.00    +0.038 A 
ATOM     11  C   UNL     1      18.832  25.385   4.568  0.00  0.00    +0.047 A 
ATOM     12  C   UNL     1      18.275  24.041   4.596  0.00  0.00    +0.035 A 
ATOM     32  C   UNL     1      19.063  22.972   4.080  0.00  0.00    +0.024 A 
ATOM     33  C   UNL     1      20.378  23.205   3.538  0.00  0.00    +0.007 A 
ATOM     34  C   UNL     1      20.932  24.528   3.505  0.00  0.00    -0.029 A 
ATOM     35  C   UNL     1      22.345  24.721   2.906  0.00  0.00    +0.045 C 
ENDROOT
BRANCH  10   9
ATOM      4  C   UNL     1      20.996  29.819   1.861  0.00  0.00    +0.077 A 
ATOM      5  C   UNL     1      20.462  29.349   0.615  0.00  0.00    +0.048 A 
ATOM      6  C   UNL     1      19.980  28.022   0.574  0.00  0.00    +0.116 A 
ATOM      7  N   UNL     1      20.033  27.232   1.702  0.00  0.00    -0.223 NA
ATOM      8  C   UNL     1      20.555  27.715   2.888  0.00  0.00    +0.220 A 
ATOM      9  N   UNL     1      20.611  26.941   4.037  0.00  0.00    -0.283 N 
ATOM     36  H   UNL     1      21.010  27.332   4.889  0.00  0.00    +0.155 HD
ATOM     37  N   UNL     1      21.023  28.979   2.952  0.00  0.00    -0.214 NA
BRANCH   4   3
ATOM      1  C   UNL     1      21.863  33.298   3.424  0.00  0.00    +0.020 A 
ATOM      2  C   UNL     1      21.314  31.970   3.279  0.00  0.00    +0.013 A 
ATOM      3  C   UNL     1      21.540  31.199   2.063  0.00  0.00    +0.019 A 
ATOM     38  C   UNL     1      22.333  31.806   1.004  0.00  0.00    +0.120 A 
ATOM     39  N   UNL     1      22.848  33.088   1.171  0.00  0.00    -0.263 NA
ATOM     40  C   UNL     1      22.635  33.840   2.336  0.00  0.00    +0.111 A 
ENDBRANCH   4   3
ENDBRANCH  10   9
BRANCH  12  13
ATOM     13  N   UNL     1      16.965  23.731   5.114  0.00  0.00    -0.281 N 
ATOM     14  C   UNL     1      16.648  23.072   6.290  0.00  0.00    +0.248 C 
ATOM     30  O   UNL     1      17.451  22.456   6.975  0.00  0.00    -0.270 OA
ATOM     31  H   UNL     1      16.176  24.035   4.543  0.00  0.00    +0.155 HD
BRANCH  14  15
ATOM     15  C   UNL     1      15.232  23.085   6.766  0.00  0.00    +0.037 A 
ATOM     16  C   UNL     1      14.908  23.260   8.184  0.00  0.00    +0.013 A 
ATOM     17  C   UNL     1      13.534  23.252   8.619  0.00  0.00    +0.005 A 
ATOM     18  C   UNL     1      12.472  23.070   7.633  0.00  0.00    -0.033 A 
ATOM     28  C   UNL     1      12.820  22.904   6.232  0.00  0.00    +0.005 A 
ATOM     29  C   UNL     1      14.166  22.910   5.802  0.00  0.00    +0.013 A 
BRANCH  18  19
ATOM     19  C   UNL     1      10.979  23.028   8.010  0.00  0.00    +0.119 C 
BRANCH  19  20
ATOM     20  N   UNL     1      10.255  24.331   8.083  0.00  0.00    -0.302 NA
ATOM     21  C   UNL     1       9.058  24.271   9.037  0.00  0.00    +0.066 C 
ATOM     22  C   UNL     1       8.325  25.650   9.118  0.00  0.00    -0.064 C 
ATOM     23  N   UNL     1       7.880  26.071   7.717  0.00  0.00    +0.379 N 
ATOM     24  C   UNL     1       7.140  27.339   7.798  0.00  0.00    -0.096 C 
ATOM     25  H   UNL     1       7.178  25.293   7.337  0.00  0.00    -0.082 HD
ATOM     26  C   UNL     1       9.064  26.131   6.761  0.00  0.00    -0.064 C 
ATOM     27  C   UNL     1       9.802  24.765   6.710  0.00  0.00    +0.066 C 
ENDBRANCH  19  20
ENDBRANCH  18  19
ENDBRANCH  14  15
ENDBRANCH  12  13
TORSDOF 6
ENDMDL
MODEL 5
REMARK VINA RESULT:      -8.2      5.757      7.932
REMARK  Name = C:\Users\Docking\Desktop\test protocol\1iep_ligandH.pdb
REMARK  8 active torsions:
REMARK  status: ('A' for Active; 'I' for Inactive)
REMARK    1  A    between atoms: _5  and  _11
REMARK    2  A    between atoms: _19  and  _21
REMARK    3  A    between atoms: _22  and  _66
REMARK    4  A    between atoms: _27  and  _30
REMARK    5  A    between atoms: _32  and  _33
REMARK    6  A    between atoms: _38  and  _43
REMARK    7  A    between atoms: _43  and  _46
REMARK    8  A    between atoms: _53  and  _55
REMARK                            x       y       z     vdW  Elec       q    Type
REMARK                         _______ _______ _______ _____ _____    ______ ____
ROOT
ATOM     10  C   UNL     1      12.352  23.402   8.225  0.00  0.00    +0.038 A 
ATOM     11  C   UNL     1      13.539  23.673   7.498  0.00  0.00    +0.047 A 
ATOM     12  C   UNL     1      14.840  23.261   8.002  0.00  0.00    +0.035 A 
ATOM     32  C   UNL     1      14.895  22.572   9.248  0.00  0.00    +0.024 A 
ATOM     33  C   UNL     1      13.698  22.289  10.001  0.00  0.00    +0.007 A 
ATOM     34  C   UNL     1      12.412  22.695   9.510  0.00  0.00    -0.029 A 
ATOM     35  C   UNL     1      11.163  22.372  10.362  0.00  0.00    +0.045 C 
ENDROOT
BRANCH  10   9
ATOM      4  C   UNL     1       8.828  26.625   7.742  0.00  0.00    +0.077 A 
ATOM      5  C   UNL     1       9.463  27.542   8.645  0.00  0.00    +0.048 A 
ATOM      6  C   UNL     1      10.692  27.143   9.217  0.00  0.00    +0.116 A 
ATOM      7  N   UNL     1      11.236  25.916   8.903  0.00  0.00    -0.223 NA
ATOM      8  C   UNL     1      10.597  25.055   8.030  0.00  0.00    +0.220 A 
ATOM      9  N   UNL     1      11.130  23.820   7.694  0.00  0.00    -0.283 N 
ATOM     36  H   UNL     1      10.624  23.210   7.052  0.00  0.00    +0.155 HD
ATOM     37  N   UNL     1       9.422  25.412   7.472  0.00  0.00    -0.214 NA
BRANCH   4   3
ATOM      1  C   UNL     1       5.046  27.355   7.064  0.00  0.00    +0.020 A 
ATOM      2  C   UNL     1       6.274  27.087   7.775  0.00  0.00    +0.013 A 
ATOM      3  C   UNL     1       7.528  26.904   7.055  0.00  0.00    +0.019 A 
ATOM     38  C   UNL     1       7.504  26.999   5.603  0.00  0.00    +0.120 A 
ATOM     39  N   UNL     1       6.306  27.257   4.945  0.00  0.00    -0.263 NA
ATOM     40  C   UNL     1       5.093  27.433   5.627  0.00  0.00    +0.111 A 
ENDBRANCH   4   3
ENDBRANCH  10   9
BRANCH  12  13
ATOM     13  N   UNL     1      16.081  23.515   7.312  0.00  0.00    -0.281 N 
ATOM     14  C   UNL     1      16.646  22.786   6.278  0.00  0.00    +0.248 C 
ATOM     30  O   UNL     1      16.272  21.675   5.931  0.00  0.00    -0.270 OA
ATOM     31  H   UNL     1      16.606  24.332   7.623  0.00  0.00    +0.155 HD
BRANCH  14  15
ATOM     15  C   UNL     1      17.802  23.368   5.531  0.00  0.00    +0.037 A 
ATOM     16  C   UNL     1      17.665  24.611   4.768  0.00  0.00    +0.013 A 
ATOM     17  C   UNL     1      18.792  25.143   4.043  0.00  0.00    +0.005 A 
ATOM     18  C   UNL     1      20.067  24.430   4.078  0.00  0.00    -0.033 A 
ATOM     28  C   UNL     1      20.176  23.202   4.848  0.00  0.00    +0.005 A 
ATOM     29  C   UNL     1      19.074  22.677   5.559  0.00  0.00    +0.013 A 
BRANCH  18  19
ATOM     19  C   UNL     1      21.316  24.912   3.317  0.00  0.00    +0.119 C 
BRANCH  19  20
ATOM     20  N   UNL     1      22.249  23.866   2.802  0.00  0.00    -0.302 NA
ATOM     21  C   UNL     1      23.611  23.918   3.498  0.00  0.00    +0.066 C 
ATOM     22  C   UNL     1      24.567  22.803   2.963  0.00  0.00    -0.064 C 
ATOM     23  N   UNL     1      24.727  22.955   1.449  0.00  0.00    +0.379 N 
ATOM     24  C   UNL     1      25.670  21.943   0.951  0.00  0.00    -0.096 C 
ATOM     25  H   UNL     1      25.172  23.958   1.255  0.00  0.00    -0.082 HD
ATOM     26  C   UNL     1      23.376  22.907   0.749  0.00  0.00    -0.064 C 
ATOM     27  C   UNL     1      22.424  24.000   1.309  0.00  0.00    +0.066 C 
ENDBRANCH  19  20
ENDBRANCH  18  19
ENDBRANCH  14  15
ENDBRANCH  12  13
TORSDOF 6
ENDMDL
