MODEL 1
REMARK VINA RESULT:      -8.7      0.000      0.000
REMARK  Name = C:\Users\Docking\Desktop\test protocol\1iep_ligandH.pdb
REMARK  8 active torsions:
REMARK  status: ('A' for Active; 'I' for Inactive)
REMARK    1  A    between atoms: _5  and  _11
REMARK    2  A    between atoms: _19  and  _21
REMARK    3  A    between atoms: _22  and  _66
REMARK    4  A    between atoms: _27  and  _30
REMARK    5  A    between atoms: _32  and  _33
REMARK    6  A    between atoms: _38  and  _43
REMARK    7  A    between atoms: _43  and  _46
REMARK    8  A    between atoms: _53  and  _55
REMARK                            x       y       z     vdW  Elec       q    Type
REMARK                         _______ _______ _______ _____ _____    ______ ____
ROOT
ATOM     10  C   UNL     1      15.297  22.304   6.778  0.00  0.00    +0.038 A 
ATOM     11  C   UNL     1      16.292  22.260   7.787  0.00  0.00    +0.047 A 
ATOM     12  C   UNL     1      17.283  21.195   7.820  0.00  0.00    +0.035 A 
ATOM     32  C   UNL     1      17.232  20.193   6.808  0.00  0.00    +0.024 A 
ATOM     33  C   UNL     1      16.226  20.222   5.775  0.00  0.00    +0.007 A 
ATOM     34  C   UNL     1      15.245  21.268   5.739  0.00  0.00    -0.029 A 
ATOM     35  C   UNL     1      14.186  21.246   4.612  0.00  0.00    +0.045 C 
ENDROOT
BRANCH  10   9
ATOM      4  C   UNL     1      11.088  24.210   8.079  0.00  0.00    +0.077 A 
ATOM      5  C   UNL     1      10.690  23.013   8.762  0.00  0.00    +0.048 A 
ATOM      6  C   UNL     1      11.594  21.927   8.749  0.00  0.00    +0.116 A 
ATOM      7  N   UNL     1      12.804  22.041   8.098  0.00  0.00    -0.223 NA
ATOM      8  C   UNL     1      13.156  23.209   7.448  0.00  0.00    +0.220 A 
ATOM      9  N   UNL     1      14.370  23.349   6.794  0.00  0.00    -0.283 N 
ATOM     36  H   UNL     1      14.590  24.225   6.319  0.00  0.00    +0.155 HD
ATOM     37  N   UNL     1      12.309  24.260   7.445  0.00  0.00    -0.214 NA
BRANCH   4   3
ATOM      1  C   UNL     1       9.261  27.543   9.003  0.00  0.00    +0.020 A 
ATOM      2  C   UNL     1      10.088  26.365   9.126  0.00  0.00    +0.013 A 
ATOM      3  C   UNL     1      10.243  25.444   8.007  0.00  0.00    +0.019 A 
ATOM     38  C   UNL     1       9.543  25.747   6.768  0.00  0.00    +0.120 A 
ATOM     39  N   UNL     1       8.752  26.888   6.680  0.00  0.00    -0.263 NA
ATOM     40  C   UNL     1       8.594  27.780   7.750  0.00  0.00    +0.111 A 
ENDBRANCH   4   3
ENDBRANCH  10   9
BRANCH  12  13
ATOM     13  N   UNL     1      18.312  21.093   8.825  0.00  0.00    -0.281 N 
ATOM     14  C   UNL     1      19.664  21.364   8.689  0.00  0.00    +0.248 C 
ATOM     30  O   UNL     1      20.232  21.530   7.620  0.00  0.00    -0.270 OA
ATOM     31  H   UNL     1      18.007  20.785   9.748  0.00  0.00    +0.155 HD
BRANCH  14  15
ATOM     15  C   UNL     1      20.511  21.447   9.918  0.00  0.00    +0.037 A 
ATOM     16  C   UNL     1      21.367  22.608  10.175  0.00  0.00    +0.013 A 
ATOM     17  C   UNL     1      22.186  22.655  11.360  0.00  0.00    +0.005 A 
ATOM     18  C   UNL     1      22.152  21.537  12.299  0.00  0.00    -0.033 A 
ATOM     28  C   UNL     1      21.290  20.399  12.023  0.00  0.00    +0.005 A 
ATOM     29  C   UNL     1      20.486  20.349  10.862  0.00  0.00    +0.013 A 
BRANCH  18  19
ATOM     19  C   UNL     1      23.009  21.492  13.578  0.00  0.00    +0.119 C 
BRANCH  19  20
ATOM     20  N   UNL     1      22.456  22.159  14.795  0.00  0.00    -0.302 NA
ATOM     21  C   UNL     1      22.275  23.666  14.591  0.00  0.00    +0.066 C 
ATOM     22  C   UNL     1      21.675  24.344  15.866  0.00  0.00    -0.064 C 
ATOM     23  N   UNL     1      22.583  24.065  17.064  0.00  0.00    +0.379 N 
ATOM     24  C   UNL     1      22.053  24.749  18.252  0.00  0.00    -0.096 C 
ATOM     25  H   UNL     1      23.583  24.503  16.839  0.00  0.00    -0.082 HD
ATOM     26  C   UNL     1      22.772  22.569  17.272  0.00  0.00    -0.064 C 
ATOM     27  C   UNL     1      23.341  21.900  15.989  0.00  0.00    +0.066 C 
ENDBRANCH  19  20
ENDBRANCH  18  19
ENDBRANCH  14  15
ENDBRANCH  12  13
TORSDOF 6
ENDMDL
MODEL 2
REMARK VINA RESULT:      -8.4      6.641      9.662
REMARK  Name = C:\Users\Docking\Desktop\test protocol\1iep_ligandH.pdb
REMARK  8 active torsions:
REMARK  status: ('A' for Active; 'I' for Inactive)
REMARK    1  A    between atoms: _5  and  _11
REMARK    2  A    between atoms: _19  and  _21
REMARK    3  A    between atoms: _22  and  _66
REMARK    4  A    between atoms: _27  and  _30
REMARK    5  A    between atoms: _32  and  _33
REMARK    6  A    between atoms: _38  and  _43
REMARK    7  A    between atoms: _43  and  _46
REMARK    8  A    between atoms: _53  and  _55
REMARK                            x       y       z     vdW  Elec       q    Type
REMARK                         _______ _______ _______ _____ _____    ______ ____
ROOT
ATOM     10  C   UNL     1      11.958  22.718  10.436  0.00  0.00    +0.038 A 
ATOM     11  C   UNL     1      13.010  22.575   9.495  0.00  0.00    +0.047 A 
ATOM     12  C   UNL     1      13.401  23.678   8.631  0.00  0.00    +0.035 A 
ATOM     32  C   UNL     1      12.702  24.913   8.753  0.00  0.00    +0.024 A 
ATOM     33  C   UNL     1      11.629  25.076   9.703  0.00  0.00    +0.007 A 
ATOM     34  C   UNL     1      11.237  23.991  10.557  0.00  0.00    -0.029 A 
ATOM     35  C   UNL     1      10.075  24.220  11.552  0.00  0.00    +0.045 C 
ENDROOT
BRANCH  10   9
ATOM      4  C   UNL     1       9.394  18.766  11.356  0.00  0.00    +0.077 A 
ATOM      5  C   UNL     1       8.638  18.903  10.145  0.00  0.00    +0.048 A 
ATOM      6  C   UNL     1       8.935  20.008   9.315  0.00  0.00    +0.116 A 
ATOM      7  N   UNL     1       9.917  20.903   9.681  0.00  0.00    -0.223 NA
ATOM      8  C   UNL     1      10.626  20.743  10.857  0.00  0.00    +0.220 A 
ATOM      9  N   UNL     1      11.623  21.627  11.241  0.00  0.00    -0.283 N 
ATOM     36  H   UNL     1      12.118  21.478  12.120  0.00  0.00    +0.155 HD
ATOM     37  N   UNL     1      10.360  19.697  11.667  0.00  0.00    -0.214 NA
BRANCH   4   3
ATOM      1  C   UNL     1       9.727  16.445  14.487  0.00  0.00    +0.020 A 
ATOM      2  C   UNL     1       9.954  17.543  13.576  0.00  0.00    +0.013 A 
ATOM      3  C   UNL     1       9.199  17.650  12.335  0.00  0.00    +0.019 A 
ATOM     38  C   UNL     1       8.212  16.621  12.043  0.00  0.00    +0.120 A 
ATOM     39  N   UNL     1       8.015  15.574  12.938  0.00  0.00    -0.263 NA
ATOM     40  C   UNL     1       8.738  15.461  14.135  0.00  0.00    +0.111 A 
ENDBRANCH   4   3
ENDBRANCH  10   9
BRANCH  12  13
ATOM     13  N   UNL     1      14.456  23.589   7.652  0.00  0.00    -0.281 N 
ATOM     14  C   UNL     1      14.377  23.108   6.355  0.00  0.00    +0.248 C 
ATOM     30  O   UNL     1      13.428  22.480   5.908  0.00  0.00    -0.270 OA
ATOM     31  H   UNL     1      15.373  23.921   7.952  0.00  0.00    +0.155 HD
BRANCH  14  15
ATOM     15  C   UNL     1      15.522  23.347   5.425  0.00  0.00    +0.037 A 
ATOM     16  C   UNL     1      15.306  23.543   3.989  0.00  0.00    +0.013 A 
ATOM     17  C   UNL     1      16.429  23.755   3.111  0.00  0.00    +0.005 A 
ATOM     18  C   UNL     1      17.780  23.774   3.668  0.00  0.00    -0.033 A 
ATOM     28  C   UNL     1      17.965  23.582   5.097  0.00  0.00    +0.005 A 
ATOM     29  C   UNL     1      16.866  23.373   5.961  0.00  0.00    +0.013 A 
BRANCH  18  19
ATOM     19  C   UNL     1      19.039  23.972   2.803  0.00  0.00    +0.119 C 
BRANCH  19  20
ATOM     20  N   UNL     1      19.359  25.365   2.372  0.00  0.00    -0.302 NA
ATOM     21  C   UNL     1      20.867  25.634   2.372  0.00  0.00    +0.066 C 
ATOM     22  C   UNL     1      21.186  27.089   1.897  0.00  0.00    -0.064 C 
ATOM     23  N   UNL     1      20.458  28.088   2.798  0.00  0.00    +0.379 N 
ATOM     24  C   UNL     1      20.802  29.458   2.390  0.00  0.00    -0.096 C 
ATOM     25  H   UNL     1      20.833  27.940   3.838  0.00  0.00    -0.082 HD
ATOM     26  C   UNL     1      18.958  27.826   2.806  0.00  0.00    -0.064 C 
ATOM     27  C   UNL     1      18.654  26.368   3.252  0.00  0.00    +0.066 C 
ENDBRANCH  19  20
ENDBRANCH  18  19
ENDBRANCH  14  15
ENDBRANCH  12  13
TORSDOF 6
ENDMDL
MODEL 3
REMARK VINA RESULT:      -8.1      5.667      8.409
REMARK  Name = C:\Users\Docking\Desktop\test protocol\1iep_ligandH.pdb
REMARK  8 active torsions:
REMARK  status: ('A' for Active; 'I' for Inactive)
REMARK    1  A    between atoms: _5  and  _11
REMARK    2  A    between atoms: _19  and  _21
REMARK    3  A    between atoms: _22  and  _66
REMARK    4  A    between atoms: _27  and  _30
REMARK    5  A    between atoms: _32  and  _33
REMARK    6  A    between atoms: _38  and  _43
REMARK    7  A    between atoms: _43  and  _46
REMARK    8  A    between atoms: _53  and  _55
REMARK                            x       y       z     vdW  Elec       q    Type
REMARK                         _______ _______ _______ _____ _____    ______ ____
ROOT
ATOM     10  C   UNL     1      11.883  23.332   8.615  0.00  0.00    +0.038 A 
ATOM     11  C   UNL     1      13.071  23.548   7.872  0.00  0.00    +0.047 A 
ATOM     12  C   UNL     1      14.370  23.158   8.400  0.00  0.00    +0.035 A 
ATOM     32  C   UNL     1      14.420  22.548   9.688  0.00  0.00    +0.024 A 
ATOM     33  C   UNL     1      13.222  22.322  10.457  0.00  0.00    +0.007 A 
ATOM     34  C   UNL     1      11.939  22.707   9.942  0.00  0.00    -0.029 A 
ATOM     35  C   UNL     1      10.688  22.446  10.813  0.00  0.00    +0.045 C 
ENDROOT
BRANCH  10   9
ATOM      4  C   UNL     1       8.461  26.597   7.800  0.00  0.00    +0.077 A 
ATOM      5  C   UNL     1       9.148  27.595   8.568  0.00  0.00    +0.048 A 
ATOM      6  C   UNL     1      10.375  27.226   9.162  0.00  0.00    +0.116 A 
ATOM      7  N   UNL     1      10.870  25.951   8.994  0.00  0.00    -0.223 NA
ATOM      8  C   UNL     1      10.181  25.011   8.249  0.00  0.00    +0.220 A 
ATOM      9  N   UNL     1      10.663  23.725   8.060  0.00  0.00    -0.283 N 
ATOM     36  H   UNL     1      10.121  23.060   7.510  0.00  0.00    +0.155 HD
ATOM     37  N   UNL     1       9.006  25.339   7.673  0.00  0.00    -0.214 NA
BRANCH   4   3
ATOM      1  C   UNL     1       4.647  27.114   7.099  0.00  0.00    +0.020 A 
ATOM      2  C   UNL     1       5.880  26.880   7.815  0.00  0.00    +0.013 A 
ATOM      3  C   UNL     1       7.154  26.836   7.109  0.00  0.00    +0.019 A 
ATOM     38  C   UNL     1       7.146  27.035   5.667  0.00  0.00    +0.120 A 
ATOM     39  N   UNL     1       5.943  27.257   5.005  0.00  0.00    -0.263 NA
ATOM     40  C   UNL     1       4.711  27.300   5.674  0.00  0.00    +0.111 A 
ENDBRANCH   4   3
ENDBRANCH  10   9
BRANCH  12  13
ATOM     13  N   UNL     1      15.611  23.359   7.695  0.00  0.00    -0.281 N 
ATOM     14  C   UNL     1      16.294  22.456   6.897  0.00  0.00    +0.248 C 
ATOM     30  O   UNL     1      16.047  21.260   6.840  0.00  0.00    -0.270 OA
ATOM     31  H   UNL     1      16.039  24.280   7.797  0.00  0.00    +0.155 HD
BRANCH  14  15
ATOM     15  C   UNL     1      17.423  22.949   6.051  0.00  0.00    +0.037 A 
ATOM     16  C   UNL     1      18.715  22.260   6.031  0.00  0.00    +0.013 A 
ATOM     17  C   UNL     1      19.793  22.766   5.219  0.00  0.00    +0.005 A 
ATOM     18  C   UNL     1      19.581  23.970   4.418  0.00  0.00    -0.033 A 
ATOM     28  C   UNL     1      18.287  24.631   4.452  0.00  0.00    +0.005 A 
ATOM     29  C   UNL     1      17.229  24.138   5.248  0.00  0.00    +0.013 A 
BRANCH  18  19
ATOM     19  C   UNL     1      20.681  24.593   3.538  0.00  0.00    +0.119 C 
BRANCH  19  20
ATOM     20  N   UNL     1      20.270  25.674   2.594  0.00  0.00    -0.302 NA
ATOM     21  C   UNL     1      20.490  25.274   1.132  0.00  0.00    +0.066 C 
ATOM     22  C   UNL     1      20.035  26.408   0.157  0.00  0.00    -0.064 C 
ATOM     23  N   UNL     1      20.792  27.696   0.486  0.00  0.00    +0.379 N 
ATOM     24  C   UNL     1      20.409  28.748  -0.466  0.00  0.00    -0.096 C 
ATOM     25  H   UNL     1      21.880  27.493   0.346  0.00  0.00    -0.082 HD
ATOM     26  C   UNL     1      20.581  28.099   1.939  0.00  0.00    -0.064 C 
ATOM     27  C   UNL     1      21.010  26.954   2.898  0.00  0.00    +0.066 C 
ENDBRANCH  19  20
ENDBRANCH  18  19
ENDBRANCH  14  15
ENDBRANCH  12  13
TORSDOF 6
ENDMDL
MODEL 4
REMARK VINA RESULT:      -8.1      6.807      9.718
REMARK  Name = C:\Users\Docking\Desktop\test protocol\1iep_ligandH.pdb
REMARK  8 active torsions:
REMARK  status: ('A' for Active; 'I' for Inactive)
REMARK    1  A    between atoms: _5  and  _11
REMARK    2  A    between atoms: _19  and  _21
REMARK    3  A    between atoms: _22  and  _66
REMARK    4  A    between atoms: _27  and  _30
REMARK    5  A    between atoms: _32  and  _33
REMARK    6  A    between atoms: _38  and  _43
REMARK    7  A    between atoms: _43  and  _46
REMARK    8  A    between atoms: _53  and  _55
REMARK                            x       y       z     vdW  Elec       q    Type
REMARK                         _______ _______ _______ _____ _____    ______ ____
ROOT
ATOM     10  C   UNL     1      11.844  22.771  10.469  0.00  0.00    +0.038 A 
ATOM     11  C   UNL     1      12.849  22.679   9.473  0.00  0.00    +0.047 A 
ATOM     12  C   UNL     1      13.191  23.821   8.640  0.00  0.00    +0.035 A 
ATOM     32  C   UNL     1      12.491  25.045   8.851  0.00  0.00    +0.024 A 
ATOM     33  C   UNL     1      11.465  25.156   9.858  0.00  0.00    +0.007 A 
ATOM     34  C   UNL     1      11.122  24.032  10.681  0.00  0.00    -0.029 A 
ATOM     35  C   UNL     1      10.009  24.207  11.741  0.00  0.00    +0.045 C 
ENDROOT
BRANCH  10   9
ATOM      4  C   UNL     1       9.370  18.748  11.323  0.00  0.00    +0.077 A 
ATOM      5  C   UNL     1       8.565  18.923  10.149  0.00  0.00    +0.048 A 
ATOM      6  C   UNL     1       8.814  20.065   9.356  0.00  0.00    +0.116 A 
ATOM      7  N   UNL     1       9.798  20.959   9.719  0.00  0.00    -0.223 NA
ATOM      8  C   UNL     1      10.556  20.761  10.859  0.00  0.00    +0.220 A 
ATOM      9  N   UNL     1      11.556  21.643  11.240  0.00  0.00    -0.283 N 
ATOM     36  H   UNL     1      12.087  21.465  12.091  0.00  0.00    +0.155 HD
ATOM     37  N   UNL     1      10.336  19.679  11.634  0.00  0.00    -0.214 NA
BRANCH   4   3
ATOM      1  C   UNL     1       9.792  16.349  14.384  0.00  0.00    +0.020 A 
ATOM      2  C   UNL     1       9.966  17.490  13.514  0.00  0.00    +0.013 A 
ATOM      3  C   UNL     1       9.229  17.589  12.261  0.00  0.00    +0.019 A 
ATOM     38  C   UNL     1       8.316  16.510  11.915  0.00  0.00    +0.120 A 
ATOM     39  N   UNL     1       8.171  15.423  12.772  0.00  0.00    -0.263 NA
ATOM     40  C   UNL     1       8.876  15.316  13.980  0.00  0.00    +0.111 A 
ENDBRANCH   4   3
ENDBRANCH  10   9
BRANCH  12  13
ATOM     13  N   UNL     1      14.197  23.784   7.608  0.00  0.00    -0.281 N 
ATOM     14  C   UNL     1      14.128  23.160   6.373  0.00  0.00    +0.248 C 
ATOM     30  O   UNL     1      13.267  22.354   6.054  0.00  0.00    -0.270 OA
ATOM     31  H   UNL     1      15.066  24.279   7.812  0.00  0.00    +0.155 HD
BRANCH  14  15
ATOM     15  C   UNL     1      15.175  23.464   5.351  0.00  0.00    +0.037 A 
ATOM     16  C   UNL     1      16.599  23.444   5.692  0.00  0.00    +0.013 A 
ATOM     17  C   UNL     1      17.588  23.758   4.691  0.00  0.00    +0.005 A 
ATOM     18  C   UNL     1      17.154  24.093   3.337  0.00  0.00    -0.033 A 
ATOM     28  C   UNL     1      15.734  24.100   3.024  0.00  0.00    +0.005 A 
ATOM     29  C   UNL     1      14.763  23.794   4.003  0.00  0.00    +0.013 A 
BRANCH  18  19
ATOM     19  C   UNL     1      18.138  24.462   2.211  0.00  0.00    +0.119 C 
BRANCH  19  20
ATOM     20  N   UNL     1      19.564  24.684   2.594  0.00  0.00    -0.302 NA
ATOM     21  C   UNL     1      20.128  25.971   1.986  0.00  0.00    +0.066 C 
ATOM     22  C   UNL     1      21.614  26.200   2.416  0.00  0.00    -0.064 C 
ATOM     23  N   UNL     1      22.454  24.991   2.000  0.00  0.00    +0.379 N 
ATOM     24  C   UNL     1      23.862  25.227   2.350  0.00  0.00    -0.096 C 
ATOM     25  H   UNL     1      22.392  24.902   0.890  0.00  0.00    -0.082 HD
ATOM     26  C   UNL     1      21.898  23.706   2.598  0.00  0.00    -0.064 C 
ATOM     27  C   UNL     1      20.412  23.504   2.189  0.00  0.00    +0.066 C 
ENDBRANCH  19  20
ENDBRANCH  18  19
ENDBRANCH  14  15
ENDBRANCH  12  13
TORSDOF 6
ENDMDL
MODEL 5
REMARK VINA RESULT:      -7.9      7.886     15.365
REMARK  Name = C:\Users\Docking\Desktop\test protocol\1iep_ligandH.pdb
REMARK  8 active torsions:
REMARK  status: ('A' for Active; 'I' for Inactive)
REMARK    1  A    between atoms: _5  and  _11
REMARK    2  A    between atoms: _19  and  _21
REMARK    3  A    between atoms: _22  and  _66
REMARK    4  A    between atoms: _27  and  _30
REMARK    5  A    between atoms: _32  and  _33
REMARK    6  A    between atoms: _38  and  _43
REMARK    7  A    between atoms: _43  and  _46
REMARK    8  A    between atoms: _53  and  _55
REMARK                            x       y       z     vdW  Elec       q    Type
REMARK                         _______ _______ _______ _____ _____    ______ ____
ROOT
ATOM     10  C   UNL     1       9.839  24.145  10.117  0.00  0.00    +0.038 A 
ATOM     11  C   UNL     1       8.643  24.666   9.561  0.00  0.00    +0.047 A 
ATOM     12  C   UNL     1       8.627  25.953   8.882  0.00  0.00    +0.035 A 
ATOM     32  C   UNL     1       9.848  26.681   8.786  0.00  0.00    +0.024 A 
ATOM     33  C   UNL     1      11.073  26.167   9.346  0.00  0.00    +0.007 A 
ATOM     34  C   UNL     1      11.095  24.899  10.018  0.00  0.00    -0.029 A 
ATOM     35  C   UNL     1      12.435  24.400  10.605  0.00  0.00    +0.045 C 
ENDROOT
BRANCH  10   9
ATOM      4  C   UNL     1      10.662  19.418  10.245  0.00  0.00    +0.077 A 
ATOM      5  C   UNL     1      11.195  19.415   8.913  0.00  0.00    +0.048 A 
ATOM      6  C   UNL     1      11.233  20.649   8.226  0.00  0.00    +0.116 A 
ATOM      7  N   UNL     1      10.771  21.795   8.836  0.00  0.00    -0.223 NA
ATOM      8  C   UNL     1      10.261  21.763  10.121  0.00  0.00    +0.220 A 
ATOM      9  N   UNL     1       9.798  22.904  10.757  0.00  0.00    -0.283 N 
ATOM     36  H   UNL     1       9.422  22.838  11.703  0.00  0.00    +0.155 HD
ATOM     37  N   UNL     1      10.212  20.596  10.798  0.00  0.00    -0.214 NA
BRANCH   4   3
ATOM      1  C   UNL     1       9.674  16.927  13.095  0.00  0.00    +0.020 A 
ATOM      2  C   UNL     1       9.740  18.135  12.305  0.00  0.00    +0.013 A 
ATOM      3  C   UNL     1      10.558  18.193  11.100  0.00  0.00    +0.019 A 
ATOM     38  C   UNL     1      11.302  17.002  10.719  0.00  0.00    +0.120 A 
ATOM     39  N   UNL     1      11.220  15.854  11.500  0.00  0.00    -0.263 NA
ATOM     40  C   UNL     1      10.437  15.787  12.663  0.00  0.00    +0.111 A 
ENDBRANCH   4   3
ENDBRANCH  10   9
BRANCH  12  13
ATOM     13  N   UNL     1       7.441  26.536   8.306  0.00  0.00    -0.281 N 
ATOM     14  C   UNL     1       7.132  26.688   6.964  0.00  0.00    +0.248 C 
ATOM     30  O   UNL     1       7.929  26.536   6.050  0.00  0.00    -0.270 OA
ATOM     31  H   UNL     1       6.744  26.879   8.968  0.00  0.00    +0.155 HD
BRANCH  14  15
ATOM     15  C   UNL     1       5.740  27.077   6.583  0.00  0.00    +0.037 A 
ATOM     16  C   UNL     1       5.233  26.854   5.227  0.00  0.00    +0.013 A 
ATOM     17  C   UNL     1       3.893  27.255   4.880  0.00  0.00    +0.005 A 
ATOM     18  C   UNL     1       3.049  27.883   5.894  0.00  0.00    -0.033 A 
ATOM     28  C   UNL     1       3.576  28.088   7.233  0.00  0.00    +0.005 A 
ATOM     29  C   UNL     1       4.889  27.697   7.576  0.00  0.00    +0.013 A 
BRANCH  18  19
ATOM     19  C   UNL     1       1.613  28.362   5.608  0.00  0.00    +0.119 C 
BRANCH  19  20
ATOM     20  N   UNL     1       0.504  27.662   6.322  0.00  0.00    -0.302 NA
ATOM     21  C   UNL     1       0.337  28.167   7.758  0.00  0.00    +0.066 C 
ATOM     22  C   UNL     1      -0.843  27.440   8.483  0.00  0.00    -0.064 C 
ATOM     23  N   UNL     1      -0.596  25.931   8.465  0.00  0.00    +0.379 N 
ATOM     24  C   UNL     1      -1.674  25.249   9.196  0.00  0.00    -0.096 C 
ATOM     25  H   UNL     1       0.357  25.737   9.009  0.00  0.00    -0.082 HD
ATOM     26  C   UNL     1      -0.426  25.421   7.040  0.00  0.00    -0.064 C 
ATOM     27  C   UNL     1       0.729  26.170   6.319  0.00  0.00    +0.066 C 
ENDBRANCH  19  20
ENDBRANCH  18  19
ENDBRANCH  14  15
ENDBRANCH  12  13
TORSDOF 6
ENDMDL
