MODEL 1
REMARK VINA RESULT:      -8.8      0.000      0.000
REMARK  Name = C:\Users\Docking\Desktop\test protocol\1iep_ligandH.pdb
REMARK  8 active torsions:
REMARK  status: ('A' for Active; 'I' for Inactive)
REMARK    1  A    between atoms: _5  and  _11
REMARK    2  A    between atoms: _19  and  _21
REMARK    3  A    between atoms: _22  and  _66
REMARK    4  A    between atoms: _27  and  _30
REMARK    5  A    between atoms: _32  and  _33
REMARK    6  A    between atoms: _38  and  _43
REMARK    7  A    between atoms: _43  and  _46
REMARK    8  A    between atoms: _53  and  _55
REMARK                            x       y       z     vdW  Elec       q    Type
REMARK                         _______ _______ _______ _____ _____    ______ ____
ROOT
ATOM     10  C   UNL     1      15.011  21.341   7.395  0.00  0.00    +0.038 A 
ATOM     11  C   UNL     1      16.126  21.430   8.267  0.00  0.00    +0.047 A 
ATOM     12  C   UNL     1      17.142  20.389   8.299  0.00  0.00    +0.035 A 
ATOM     32  C   UNL     1      16.992  19.272   7.426  0.00  0.00    +0.024 A 
ATOM     33  C   UNL     1      15.864  19.165   6.534  0.00  0.00    +0.007 A 
ATOM     34  C   UNL     1      14.858  20.187   6.501  0.00  0.00    -0.029 A 
ATOM     35  C   UNL     1      13.667  20.017   5.529  0.00  0.00    +0.045 C 
ENDROOT
BRANCH  10   9
ATOM      4  C   UNL     1      11.330  23.684   9.393  0.00  0.00    +0.077 A 
ATOM      5  C   UNL     1      11.266  22.767  10.494  0.00  0.00    +0.048 A 
ATOM      6  C   UNL     1      12.194  21.702  10.505  0.00  0.00    +0.116 A 
ATOM      7  N   UNL     1      13.113  21.573   9.486  0.00  0.00    -0.223 NA
ATOM      8  C   UNL     1      13.146  22.475   8.438  0.00  0.00    +0.220 A 
ATOM      9  N   UNL     1      14.066  22.369   7.407  0.00  0.00    -0.283 N 
ATOM     36  H   UNL     1      14.053  23.050   6.648  0.00  0.00    +0.155 HD
ATOM     37  N   UNL     1      12.269  23.500   8.404  0.00  0.00    -0.214 NA
BRANCH   4   3
ATOM      1  C   UNL     1       9.975  27.342   9.092  0.00  0.00    +0.020 A 
ATOM      2  C   UNL     1      10.897  26.239   9.242  0.00  0.00    +0.013 A 
ATOM      3  C   UNL     1      10.419  24.863   9.241  0.00  0.00    +0.019 A 
ATOM     38  C   UNL     1       8.990  24.634   9.084  0.00  0.00    +0.120 A 
ATOM     39  N   UNL     1       8.126  25.715   8.943  0.00  0.00    -0.263 NA
ATOM     40  C   UNL     1       8.575  27.044   8.944  0.00  0.00    +0.111 A 
ENDBRANCH   4   3
ENDBRANCH  10   9
BRANCH  12  13
ATOM     13  N   UNL     1      18.292  20.421   9.169  0.00  0.00    -0.281 N 
ATOM     14  C   UNL     1      19.542  20.957   8.908  0.00  0.00    +0.248 C 
ATOM     30  O   UNL     1      19.929  21.303   7.801  0.00  0.00    -0.270 OA
ATOM     31  H   UNL     1      18.169  19.997  10.088  0.00  0.00    +0.155 HD
BRANCH  14  15
ATOM     15  C   UNL     1      20.508  21.119  10.037  0.00  0.00    +0.037 A 
ATOM     16  C   UNL     1      20.683  20.070  11.044  0.00  0.00    +0.013 A 
ATOM     17  C   UNL     1      21.609  20.259  12.133  0.00  0.00    +0.005 A 
ATOM     18  C   UNL     1      22.368  21.504  12.218  0.00  0.00    -0.033 A 
ATOM     28  C   UNL     1      22.179  22.526  11.203  0.00  0.00    +0.005 A 
ATOM     29  C   UNL     1      21.272  22.345  10.135  0.00  0.00    +0.013 A 
BRANCH  18  19
ATOM     19  C   UNL     1      23.363  21.800  13.357  0.00  0.00    +0.119 C 
BRANCH  19  20
ATOM     20  N   UNL     1      22.805  22.364  14.622  0.00  0.00    -0.302 NA
ATOM     21  C   UNL     1      22.513  23.862  14.504  0.00  0.00    +0.066 C 
ATOM     22  C   UNL     1      21.909  24.431  15.829  0.00  0.00    -0.064 C 
ATOM     23  N   UNL     1      22.873  24.156  16.985  0.00  0.00    +0.379 N 
ATOM     24  C   UNL     1      22.335  24.741  18.222  0.00  0.00    -0.096 C 
ATOM     25  H   UNL     1      23.833  24.675  16.755  0.00  0.00    -0.082 HD
ATOM     26  C   UNL     1      23.171  22.669  17.108  0.00  0.00    -0.064 C 
ATOM     27  C   UNL     1      23.743  22.108  15.776  0.00  0.00    +0.066 C 
ENDBRANCH  19  20
ENDBRANCH  18  19
ENDBRANCH  14  15
ENDBRANCH  12  13
TORSDOF 6
ENDMDL
MODEL 2
REMARK VINA RESULT:      -8.6      5.797      8.005
REMARK  Name = C:\Users\Docking\Desktop\test protocol\1iep_ligandH.pdb
REMARK  8 active torsions:
REMARK  status: ('A' for Active; 'I' for Inactive)
REMARK    1  A    between atoms: _5  and  _11
REMARK    2  A    between atoms: _19  and  _21
REMARK    3  A    between atoms: _22  and  _66
REMARK    4  A    between atoms: _27  and  _30
REMARK    5  A    between atoms: _32  and  _33
REMARK    6  A    between atoms: _38  and  _43
REMARK    7  A    between atoms: _43  and  _46
REMARK    8  A    between atoms: _53  and  _55
REMARK                            x       y       z     vdW  Elec       q    Type
REMARK                         _______ _______ _______ _____ _____    ______ ____
ROOT
ATOM     10  C   UNL     1      12.720  23.103   8.245  0.00  0.00    +0.038 A 
ATOM     11  C   UNL     1      13.887  23.404   7.497  0.00  0.00    +0.047 A 
ATOM     12  C   UNL     1      15.202  22.978   7.950  0.00  0.00    +0.035 A 
ATOM     32  C   UNL     1      15.291  22.244   9.169  0.00  0.00    +0.024 A 
ATOM     33  C   UNL     1      14.115  21.930   9.942  0.00  0.00    +0.007 A 
ATOM     34  C   UNL     1      12.816  22.350   9.501  0.00  0.00    -0.029 A 
ATOM     35  C   UNL     1      11.590  21.991  10.374  0.00  0.00    +0.045 C 
ENDROOT
BRANCH  10   9
ATOM      4  C   UNL     1       9.186  26.338   7.963  0.00  0.00    +0.077 A 
ATOM      5  C   UNL     1       9.847  27.228   8.874  0.00  0.00    +0.048 A 
ATOM      6  C   UNL     1      11.092  26.812   9.398  0.00  0.00    +0.116 A 
ATOM      7  N   UNL     1      11.626  25.596   9.031  0.00  0.00    -0.223 NA
ATOM      8  C   UNL     1      10.961  24.761   8.152  0.00  0.00    +0.220 A 
ATOM      9  N   UNL     1      11.483  23.537   7.763  0.00  0.00    -0.283 N 
ATOM     36  H   UNL     1      10.958  22.947   7.118  0.00  0.00    +0.155 HD
ATOM     37  N   UNL     1       9.770  25.134   7.639  0.00  0.00    -0.214 NA
BRANCH   4   3
ATOM      1  C   UNL     1       5.385  27.083   7.417  0.00  0.00    +0.020 A 
ATOM      2  C   UNL     1       6.633  26.794   8.084  0.00  0.00    +0.013 A 
ATOM      3  C   UNL     1       7.866  26.638   7.323  0.00  0.00    +0.019 A 
ATOM     38  C   UNL     1       7.801  26.782   5.876  0.00  0.00    +0.120 A 
ATOM     39  N   UNL     1       6.584  27.060   5.261  0.00  0.00    -0.263 NA
ATOM     40  C   UNL     1       5.391  27.210   5.983  0.00  0.00    +0.111 A 
ENDBRANCH   4   3
ENDBRANCH  10   9
BRANCH  12  13
ATOM     13  N   UNL     1      16.422  23.261   7.237  0.00  0.00    -0.281 N 
ATOM     14  C   UNL     1      17.035  22.494   6.259  0.00  0.00    +0.248 C 
ATOM     30  O   UNL     1      16.737  21.338   6.000  0.00  0.00    -0.270 OA
ATOM     31  H   UNL     1      16.892  24.133   7.483  0.00  0.00    +0.155 HD
BRANCH  14  15
ATOM     15  C   UNL     1      18.150  23.094   5.465  0.00  0.00    +0.037 A 
ATOM     16  C   UNL     1      17.972  24.351   4.734  0.00  0.00    +0.013 A 
ATOM     17  C   UNL     1      19.059  24.899   3.962  0.00  0.00    +0.005 A 
ATOM     18  C   UNL     1      20.335  24.190   3.918  0.00  0.00    -0.033 A 
ATOM     28  C   UNL     1      20.486  22.947   4.657  0.00  0.00    +0.005 A 
ATOM     29  C   UNL     1      19.423  22.407   5.414  0.00  0.00    +0.013 A 
BRANCH  18  19
ATOM     19  C   UNL     1      21.542  24.690   3.102  0.00  0.00    +0.119 C 
BRANCH  19  20
ATOM     20  N   UNL     1      22.531  23.668   2.648  0.00  0.00    -0.302 NA
ATOM     21  C   UNL     1      23.932  23.935   3.207  0.00  0.00    +0.066 C 
ATOM     22  C   UNL     1      24.949  22.843   2.740  0.00  0.00    -0.064 C 
ATOM     23  N   UNL     1      24.976  22.796   1.212  0.00  0.00    +0.379 N 
ATOM     24  C   UNL     1      25.974  21.811   0.769  0.00  0.00    -0.096 C 
ATOM     25  H   UNL     1      25.305  23.797   0.849  0.00  0.00    -0.082 HD
ATOM     26  C   UNL     1      23.587  22.533   0.647  0.00  0.00    -0.064 C 
ATOM     27  C   UNL     1      22.578  23.607   1.141  0.00  0.00    +0.066 C 
ENDBRANCH  19  20
ENDBRANCH  18  19
ENDBRANCH  14  15
ENDBRANCH  12  13
TORSDOF 6
ENDMDL
MODEL 3
REMARK VINA RESULT:      -8.4      7.505     11.700
REMARK  Name = C:\Users\Docking\Desktop\test protocol\1iep_ligandH.pdb
REMARK  8 active torsions:
REMARK  status: ('A' for Active; 'I' for Inactive)
REMARK    1  A    between atoms: _5  and  _11
REMARK    2  A    between atoms: _19  and  _21
REMARK    3  A    between atoms: _22  and  _66
REMARK    4  A    between atoms: _27  and  _30
REMARK    5  A    between atoms: _32  and  _33
REMARK    6  A    between atoms: _38  and  _43
REMARK    7  A    between atoms: _43  and  _46
REMARK    8  A    between atoms: _53  and  _55
REMARK                            x       y       z     vdW  Elec       q    Type
REMARK                         _______ _______ _______ _____ _____    ______ ____
ROOT
ATOM     10  C   UNL     1      19.974  25.473   3.878  0.00  0.00    +0.038 A 
ATOM     11  C   UNL     1      18.791  25.200   4.611  0.00  0.00    +0.047 A 
ATOM     12  C   UNL     1      18.183  23.878   4.594  0.00  0.00    +0.035 A 
ATOM     32  C   UNL     1      18.809  22.857   3.822  0.00  0.00    +0.024 A 
ATOM     33  C   UNL     1      20.012  23.117   3.070  0.00  0.00    +0.007 A 
ATOM     34  C   UNL     1      20.614  24.419   3.080  0.00  0.00    -0.029 A 
ATOM     35  C   UNL     1      21.900  24.643   2.250  0.00  0.00    +0.045 C 
ENDROOT
BRANCH  10   9
ATOM      4  C   UNL     1      20.995  29.718   1.886  0.00  0.00    +0.077 A 
ATOM      5  C   UNL     1      20.427  29.331   0.627  0.00  0.00    +0.048 A 
ATOM      6  C   UNL     1      19.889  28.028   0.531  0.00  0.00    +0.116 A 
ATOM      7  N   UNL     1      19.922  27.184   1.620  0.00  0.00    -0.223 NA
ATOM      8  C   UNL     1      20.479  27.589   2.819  0.00  0.00    +0.220 A 
ATOM      9  N   UNL     1      20.515  26.759   3.930  0.00  0.00    -0.283 N 
ATOM     36  H   UNL     1      20.942  27.092   4.794  0.00  0.00    +0.155 HD
ATOM     37  N   UNL     1      21.000  28.827   2.935  0.00  0.00    -0.214 NA
BRANCH   4   3
ATOM      1  C   UNL     1      22.121  33.032   3.633  0.00  0.00    +0.020 A 
ATOM      2  C   UNL     1      21.519  31.733   3.436  0.00  0.00    +0.013 A 
ATOM      3  C   UNL     1      21.600  31.063   2.144  0.00  0.00    +0.019 A 
ATOM     38  C   UNL     1      22.303  31.740   1.064  0.00  0.00    +0.120 A 
ATOM     39  N   UNL     1      22.871  32.991   1.283  0.00  0.00    -0.263 NA
ATOM     40  C   UNL     1      22.799  33.646   2.522  0.00  0.00    +0.111 A 
ENDBRANCH   4   3
ENDBRANCH  10   9
BRANCH  12  13
ATOM     13  N   UNL     1      16.978  23.545   5.312  0.00  0.00    -0.281 N 
ATOM     14  C   UNL     1      16.848  22.731   6.425  0.00  0.00    +0.248 C 
ATOM     30  O   UNL     1      17.724  21.992   6.847  0.00  0.00    -0.270 OA
ATOM     31  H   UNL     1      16.117  23.959   4.955  0.00  0.00    +0.155 HD
BRANCH  14  15
ATOM     15  C   UNL     1      15.551  22.727   7.169  0.00  0.00    +0.037 A 
ATOM     16  C   UNL     1      14.277  22.934   6.476  0.00  0.00    +0.013 A 
ATOM     17  C   UNL     1      13.042  22.943   7.220  0.00  0.00    +0.005 A 
ATOM     18  C   UNL     1      13.076  22.743   8.666  0.00  0.00    -0.033 A 
ATOM     28  C   UNL     1      14.354  22.535   9.328  0.00  0.00    +0.005 A 
ATOM     29  C   UNL     1      15.566  22.527   8.602  0.00  0.00    +0.013 A 
BRANCH  18  19
ATOM     19  C   UNL     1      11.810  22.758   9.543  0.00  0.00    +0.119 C 
BRANCH  19  20
ATOM     20  N   UNL     1      11.018  24.024   9.578  0.00  0.00    -0.302 NA
ATOM     21  C   UNL     1       9.802  23.967   8.650  0.00  0.00    +0.066 C 
ATOM     22  C   UNL     1       8.972  25.290   8.717  0.00  0.00    -0.064 C 
ATOM     23  N   UNL     1       9.874  26.472   8.356  0.00  0.00    +0.379 N 
ATOM     24  C   UNL     1       9.083  27.712   8.362  0.00  0.00    -0.096 C 
ATOM     25  H   UNL     1      10.243  26.311   7.317  0.00  0.00    -0.082 HD
ATOM     26  C   UNL     1      11.087  26.535   9.273  0.00  0.00    -0.064 C 
ATOM     27  C   UNL     1      11.888  25.204   9.221  0.00  0.00    +0.066 C 
ENDBRANCH  19  20
ENDBRANCH  18  19
ENDBRANCH  14  15
ENDBRANCH  12  13
TORSDOF 6
ENDMDL
MODEL 4
REMARK VINA RESULT:      -8.3      5.761      8.527
REMARK  Name = C:\Users\Docking\Desktop\test protocol\1iep_ligandH.pdb
REMARK  8 active torsions:
REMARK  status: ('A' for Active; 'I' for Inactive)
REMARK    1  A    between atoms: _5  and  _11
REMARK    2  A    between atoms: _19  and  _21
REMARK    3  A    between atoms: _22  and  _66
REMARK    4  A    between atoms: _27  and  _30
REMARK    5  A    between atoms: _32  and  _33
REMARK    6  A    between atoms: _38  and  _43
REMARK    7  A    between atoms: _43  and  _46
REMARK    8  A    between atoms: _53  and  _55
REMARK                            x       y       z     vdW  Elec       q    Type
REMARK                         _______ _______ _______ _____ _____    ______ ____
ROOT
ATOM     10  C   UNL     1      12.433  23.068   8.454  0.00  0.00    +0.038 A 
ATOM     11  C   UNL     1      13.598  23.345   7.695  0.00  0.00    +0.047 A 
ATOM     12  C   UNL     1      14.912  22.922   8.152  0.00  0.00    +0.035 A 
ATOM     32  C   UNL     1      15.003  22.215   9.387  0.00  0.00    +0.024 A 
ATOM     33  C   UNL     1      13.828  21.927  10.172  0.00  0.00    +0.007 A 
ATOM     34  C   UNL     1      12.530  22.344   9.727  0.00  0.00    -0.029 A 
ATOM     35  C   UNL     1      11.306  22.013  10.613  0.00  0.00    +0.045 C 
ENDROOT
BRANCH  10   9
ATOM      4  C   UNL     1       9.007  26.392   7.947  0.00  0.00    +0.077 A 
ATOM      5  C   UNL     1       9.730  27.343   8.741  0.00  0.00    +0.048 A 
ATOM      6  C   UNL     1      10.976  26.936   9.267  0.00  0.00    +0.116 A 
ATOM      7  N   UNL     1      11.454  25.669   9.012  0.00  0.00    -0.223 NA
ATOM      8  C   UNL     1      10.731  24.775   8.244  0.00  0.00    +0.220 A 
ATOM      9  N   UNL     1      11.196  23.498   7.968  0.00  0.00    -0.283 N 
ATOM     36  H   UNL     1      10.629  22.866   7.403  0.00  0.00    +0.155 HD
ATOM     37  N   UNL     1       9.537  25.140   7.731  0.00  0.00    -0.214 NA
BRANCH   4   3
ATOM      1  C   UNL     1       5.195  27.105   7.438  0.00  0.00    +0.020 A 
ATOM      2  C   UNL     1       6.453  26.832   8.093  0.00  0.00    +0.013 A 
ATOM      3  C   UNL     1       7.678  26.675   7.319  0.00  0.00    +0.019 A 
ATOM     38  C   UNL     1       7.595  26.803   5.872  0.00  0.00    +0.120 A 
ATOM     39  N   UNL     1       6.369  27.065   5.268  0.00  0.00    -0.263 NA
ATOM     40  C   UNL     1       5.183  27.216   6.003  0.00  0.00    +0.111 A 
ENDBRANCH   4   3
ENDBRANCH  10   9
BRANCH  12  13
ATOM     13  N   UNL     1      16.132  23.181   7.428  0.00  0.00    -0.281 N 
ATOM     14  C   UNL     1      16.807  22.333   6.566  0.00  0.00    +0.248 C 
ATOM     30  O   UNL     1      16.579  21.138   6.452  0.00  0.00    -0.270 OA
ATOM     31  H   UNL     1      16.547  24.102   7.567  0.00  0.00    +0.155 HD
BRANCH  14  15
ATOM     15  C   UNL     1      17.906  22.889   5.719  0.00  0.00    +0.037 A 
ATOM     16  C   UNL     1      19.229  22.262   5.682  0.00  0.00    +0.013 A 
ATOM     17  C   UNL     1      20.276  22.829   4.869  0.00  0.00    +0.005 A 
ATOM     18  C   UNL     1      20.002  24.031   4.085  0.00  0.00    -0.033 A 
ATOM     28  C   UNL     1      18.679  24.630   4.136  0.00  0.00    +0.005 A 
ATOM     29  C   UNL     1      17.651  24.077   4.932  0.00  0.00    +0.013 A 
BRANCH  18  19
ATOM     19  C   UNL     1      21.065  24.716   3.206  0.00  0.00    +0.119 C 
BRANCH  19  20
ATOM     20  N   UNL     1      20.578  25.642   2.140  0.00  0.00    -0.302 NA
ATOM     21  C   UNL     1      20.696  25.023   0.744  0.00  0.00    +0.066 C 
ATOM     22  C   UNL     1      20.161  25.995  -0.357  0.00  0.00    -0.064 C 
ATOM     23  N   UNL     1      20.929  27.316  -0.283  0.00  0.00    +0.379 N 
ATOM     24  C   UNL     1      20.468  28.211  -1.355  0.00  0.00    -0.096 C 
ATOM     25  H   UNL     1      22.005  27.092  -0.469  0.00  0.00    -0.082 HD
ATOM     26  C   UNL     1      20.819  27.937   1.102  0.00  0.00    -0.064 C 
ATOM     27  C   UNL     1      21.326  26.951   2.191  0.00  0.00    +0.066 C 
ENDBRANCH  19  20
ENDBRANCH  18  19
ENDBRANCH  14  15
ENDBRANCH  12  13
TORSDOF 6
ENDMDL
MODEL 5
REMARK VINA RESULT:      -8.1      5.643     12.282
REMARK  Name = C:\Users\Docking\Desktop\test protocol\1iep_ligandH.pdb
REMARK  8 active torsions:
REMARK  status: ('A' for Active; 'I' for Inactive)
REMARK    1  A    between atoms: _5  and  _11
REMARK    2  A    between atoms: _19  and  _21
REMARK    3  A    between atoms: _22  and  _66
REMARK    4  A    between atoms: _27  and  _30
REMARK    5  A    between atoms: _32  and  _33
REMARK    6  A    between atoms: _38  and  _43
REMARK    7  A    between atoms: _43  and  _46
REMARK    8  A    between atoms: _53  and  _55
REMARK                            x       y       z     vdW  Elec       q    Type
REMARK                         _______ _______ _______ _____ _____    ______ ____
ROOT
ATOM     10  C   UNL     1      15.759  20.903   8.708  0.00  0.00    +0.038 A 
ATOM     11  C   UNL     1      14.720  21.867   8.665  0.00  0.00    +0.047 A 
ATOM     12  C   UNL     1      13.396  21.570   9.191  0.00  0.00    +0.035 A 
ATOM     32  C   UNL     1      13.167  20.282   9.757  0.00  0.00    +0.024 A 
ATOM     33  C   UNL     1      14.212  19.290   9.808  0.00  0.00    +0.007 A 
ATOM     34  C   UNL     1      15.519  19.576   9.288  0.00  0.00    -0.029 A 
ATOM     35  C   UNL     1      16.599  18.472   9.363  0.00  0.00    +0.045 C 
ENDROOT
BRANCH  10   9
ATOM      4  C   UNL     1      18.647  22.100   5.066  0.00  0.00    +0.077 A 
ATOM      5  C   UNL     1      17.578  22.019   4.114  0.00  0.00    +0.048 A 
ATOM      6  C   UNL     1      16.301  21.659   4.601  0.00  0.00    +0.116 A 
ATOM      7  N   UNL     1      16.119  21.402   5.942  0.00  0.00    -0.223 NA
ATOM      8  C   UNL     1      17.173  21.487   6.834  0.00  0.00    +0.220 A 
ATOM      9  N   UNL     1      17.011  21.241   8.188  0.00  0.00    -0.283 N 
ATOM     36  H   UNL     1      17.815  21.307   8.813  0.00  0.00    +0.155 HD
ATOM     37  N   UNL     1      18.402  21.828   6.393  0.00  0.00    -0.214 NA
BRANCH   4   3
ATOM      1  C   UNL     1      21.935  24.133   4.470  0.00  0.00    +0.020 A 
ATOM      2  C   UNL     1      20.570  23.828   4.831  0.00  0.00    +0.013 A 
ATOM      3  C   UNL     1      20.052  22.471   4.706  0.00  0.00    +0.019 A 
ATOM     38  C   UNL     1      20.949  21.438   4.210  0.00  0.00    +0.120 A 
ATOM     39  N   UNL     1      22.259  21.762   3.869  0.00  0.00    -0.263 NA
ATOM     40  C   UNL     1      22.767  23.065   3.983  0.00  0.00    +0.111 A 
ENDBRANCH   4   3
ENDBRANCH  10   9
BRANCH  12  13
ATOM     13  N   UNL     1      12.300  22.506   9.168  0.00  0.00    -0.281 N 
ATOM     14  C   UNL     1      12.061  23.561  10.034  0.00  0.00    +0.248 C 
ATOM     30  O   UNL     1      12.645  23.729  11.095  0.00  0.00    -0.270 OA
ATOM     31  H   UNL     1      11.616  22.376   8.422  0.00  0.00    +0.155 HD
BRANCH  14  15
ATOM     15  C   UNL     1      11.014  24.565   9.678  0.00  0.00    +0.037 A 
ATOM     16  C   UNL     1       9.606  24.181   9.547  0.00  0.00    +0.013 A 
ATOM     17  C   UNL     1       8.618  25.167   9.185  0.00  0.00    +0.005 A 
ATOM     18  C   UNL     1       9.035  26.547   8.953  0.00  0.00    -0.033 A 
ATOM     28  C   UNL     1      10.437  26.902   9.095  0.00  0.00    +0.005 A 
ATOM     29  C   UNL     1      11.409  25.939   9.448  0.00  0.00    +0.013 A 
BRANCH  18  19
ATOM     19  C   UNL     1       8.052  27.660   8.543  0.00  0.00    +0.119 C 
BRANCH  19  20
ATOM     20  N   UNL     1       7.319  27.484   7.254  0.00  0.00    -0.302 NA
ATOM     21  C   UNL     1       5.984  26.760   7.447  0.00  0.00    +0.066 C 
ATOM     22  C   UNL     1       5.220  26.604   6.092  0.00  0.00    -0.064 C 
ATOM     23  N   UNL     1       6.103  25.853   5.095  0.00  0.00    +0.379 N 
ATOM     24  C   UNL     1       5.366  25.654   3.839  0.00  0.00    -0.096 C 
ATOM     25  H   UNL     1       6.319  24.847   5.524  0.00  0.00    -0.082 HD
ATOM     26  C   UNL     1       7.434  26.566   4.899  0.00  0.00    -0.064 C 
ATOM     27  C   UNL     1       8.172  26.741   6.255  0.00  0.00    +0.066 C 
ENDBRANCH  19  20
ENDBRANCH  18  19
ENDBRANCH  14  15
ENDBRANCH  12  13
TORSDOF 6
ENDMDL
