MODEL 1
REMARK VINA RESULT:      -8.5      0.000      0.000
REMARK  Name = C:\Users\Docking\Desktop\test protocol\1iep_ligandH.pdb
REMARK  8 active torsions:
REMARK  status: ('A' for Active; 'I' for Inactive)
REMARK    1  A    between atoms: _5  and  _11
REMARK    2  A    between atoms: _19  and  _21
REMARK    3  A    between atoms: _22  and  _66
REMARK    4  A    between atoms: _27  and  _30
REMARK    5  A    between atoms: _32  and  _33
REMARK    6  A    between atoms: _38  and  _43
REMARK    7  A    between atoms: _43  and  _46
REMARK    8  A    between atoms: _53  and  _55
REMARK                            x       y       z     vdW  Elec       q    Type
REMARK                         _______ _______ _______ _____ _____    ______ ____
ROOT
ATOM     10  C   UNL     1      20.083  25.700   3.921  0.00  0.00    +0.038 A 
ATOM     11  C   UNL     1      18.785  25.487   4.452  0.00  0.00    +0.047 A 
ATOM     12  C   UNL     1      18.182  24.164   4.458  0.00  0.00    +0.035 A 
ATOM     32  C   UNL     1      18.930  23.078   3.916  0.00  0.00    +0.024 A 
ATOM     33  C   UNL     1      20.250  23.277   3.370  0.00  0.00    +0.007 A 
ATOM     34  C   UNL     1      20.849  24.581   3.360  0.00  0.00    -0.029 A 
ATOM     35  C   UNL     1      22.264  24.736   2.756  0.00  0.00    +0.045 C 
ENDROOT
BRANCH  10   9
ATOM      4  C   UNL     1      21.115  29.886   1.811  0.00  0.00    +0.077 A 
ATOM      5  C   UNL     1      20.576  29.453   0.554  0.00  0.00    +0.048 A 
ATOM      6  C   UNL     1      20.049  28.143   0.491  0.00  0.00    +0.116 A 
ATOM      7  N   UNL     1      20.065  27.336   1.607  0.00  0.00    -0.223 NA
ATOM      8  C   UNL     1      20.594  27.784   2.804  0.00  0.00    +0.220 A 
ATOM      9  N   UNL     1      20.614  26.992   3.941  0.00  0.00    -0.283 N 
ATOM     36  H   UNL     1      21.020  27.356   4.803  0.00  0.00    +0.155 HD
ATOM     37  N   UNL     1      21.105  29.030   2.890  0.00  0.00    -0.214 NA
BRANCH   4   3
ATOM      1  C   UNL     1      23.004  33.271   1.284  0.00  0.00    +0.020 A 
ATOM      2  C   UNL     1      22.455  31.962   1.015  0.00  0.00    +0.013 A 
ATOM      3  C   UNL     1      21.705  31.243   2.037  0.00  0.00    +0.019 A 
ATOM     38  C   UNL     1      21.527  31.882   3.332  0.00  0.00    +0.120 A 
ATOM     39  N   UNL     1      22.068  33.143   3.564  0.00  0.00    -0.263 NA
ATOM     40  C   UNL     1      22.793  33.843   2.588  0.00  0.00    +0.111 A 
ENDBRANCH   4   3
ENDBRANCH  10   9
BRANCH  12  13
ATOM     13  N   UNL     1      16.865  23.888   4.976  0.00  0.00    -0.281 N 
ATOM     14  C   UNL     1      16.522  23.061   6.033  0.00  0.00    +0.248 C 
ATOM     30  O   UNL     1      17.281  22.262   6.560  0.00  0.00    -0.270 OA
ATOM     31  H   UNL     1      16.092  24.360   4.508  0.00  0.00    +0.155 HD
BRANCH  14  15
ATOM     15  C   UNL     1      15.130  23.120   6.574  0.00  0.00    +0.037 A 
ATOM     16  C   UNL     1      14.874  23.436   7.982  0.00  0.00    +0.013 A 
ATOM     17  C   UNL     1      13.522  23.470   8.481  0.00  0.00    +0.005 A 
ATOM     18  C   UNL     1      12.415  23.188   7.571  0.00  0.00    -0.033 A 
ATOM     28  C   UNL     1      12.697  22.883   6.178  0.00  0.00    +0.005 A 
ATOM     29  C   UNL     1      14.021  22.848   5.685  0.00  0.00    +0.013 A 
BRANCH  18  19
ATOM     19  C   UNL     1      10.942  23.181   8.022  0.00  0.00    +0.119 C 
BRANCH  19  20
ATOM     20  N   UNL     1      10.213  24.484   7.995  0.00  0.00    -0.302 NA
ATOM     21  C   UNL     1       9.016  24.491   8.950  0.00  0.00    +0.066 C 
ATOM     22  C   UNL     1       8.278  25.869   8.927  0.00  0.00    -0.064 C 
ATOM     23  N   UNL     1       7.832  26.182   7.497  0.00  0.00    +0.379 N 
ATOM     24  C   UNL     1       7.087  27.449   7.481  0.00  0.00    -0.096 C 
ATOM     25  H   UNL     1       7.134  25.375   7.176  0.00  0.00    -0.082 HD
ATOM     26  C   UNL     1       9.017  26.174   6.541  0.00  0.00    -0.064 C 
ATOM     27  C   UNL     1       9.760  24.810   6.593  0.00  0.00    +0.066 C 
ENDBRANCH  19  20
ENDBRANCH  18  19
ENDBRANCH  14  15
ENDBRANCH  12  13
TORSDOF 6
ENDMDL
MODEL 2
REMARK VINA RESULT:      -8.5      7.174     11.899
REMARK  Name = C:\Users\Docking\Desktop\test protocol\1iep_ligandH.pdb
REMARK  8 active torsions:
REMARK  status: ('A' for Active; 'I' for Inactive)
REMARK    1  A    between atoms: _5  and  _11
REMARK    2  A    between atoms: _19  and  _21
REMARK    3  A    between atoms: _22  and  _66
REMARK    4  A    between atoms: _27  and  _30
REMARK    5  A    between atoms: _32  and  _33
REMARK    6  A    between atoms: _38  and  _43
REMARK    7  A    between atoms: _43  and  _46
REMARK    8  A    between atoms: _53  and  _55
REMARK                            x       y       z     vdW  Elec       q    Type
REMARK                         _______ _______ _______ _____ _____    ______ ____
ROOT
ATOM     10  C   UNL     1      15.656  22.280   6.946  0.00  0.00    +0.038 A 
ATOM     11  C   UNL     1      16.619  22.276   7.987  0.00  0.00    +0.047 A 
ATOM     12  C   UNL     1      17.628  21.231   8.074  0.00  0.00    +0.035 A 
ATOM     32  C   UNL     1      17.628  20.207   7.083  0.00  0.00    +0.024 A 
ATOM     33  C   UNL     1      16.655  20.196   6.018  0.00  0.00    +0.007 A 
ATOM     34  C   UNL     1      15.657  21.222   5.928  0.00  0.00    -0.029 A 
ATOM     35  C   UNL     1      14.635  21.156   4.769  0.00  0.00    +0.045 C 
ENDROOT
BRANCH  10   9
ATOM      4  C   UNL     1      11.514  24.271   8.331  0.00  0.00    +0.077 A 
ATOM      5  C   UNL     1      11.194  23.158   9.177  0.00  0.00    +0.048 A 
ATOM      6  C   UNL     1      12.118  22.090   9.222  0.00  0.00    +0.116 A 
ATOM      7  N   UNL     1      13.273  22.143   8.473  0.00  0.00    -0.223 NA
ATOM      8  C   UNL     1      13.551  23.230   7.666  0.00  0.00    +0.220 A 
ATOM      9  N   UNL     1      14.711  23.308   6.910  0.00  0.00    -0.283 N 
ATOM     36  H   UNL     1      14.875  24.124   6.321  0.00  0.00    +0.155 HD
ATOM     37  N   UNL     1      12.684  24.262   7.604  0.00  0.00    -0.214 NA
BRANCH   4   3
ATOM      1  C   UNL     1       9.509  27.546   9.076  0.00  0.00    +0.020 A 
ATOM      2  C   UNL     1      10.360  26.396   9.275  0.00  0.00    +0.013 A 
ATOM      3  C   UNL     1      10.639  25.477   8.179  0.00  0.00    +0.019 A 
ATOM     38  C   UNL     1      10.038  25.753   6.883  0.00  0.00    +0.120 A 
ATOM     39  N   UNL     1       9.221  26.867   6.721  0.00  0.00    -0.263 NA
ATOM     40  C   UNL     1       8.943  27.758   7.769  0.00  0.00    +0.111 A 
ENDBRANCH   4   3
ENDBRANCH  10   9
BRANCH  12  13
ATOM     13  N   UNL     1      18.626  21.170   9.113  0.00  0.00    -0.281 N 
ATOM     14  C   UNL     1      19.992  21.371   8.994  0.00  0.00    +0.248 C 
ATOM     30  O   UNL     1      20.593  21.424   7.932  0.00  0.00    -0.270 OA
ATOM     31  H   UNL     1      18.285  20.953  10.049  0.00  0.00    +0.155 HD
BRANCH  14  15
ATOM     15  C   UNL     1      20.810  21.520  10.236  0.00  0.00    +0.037 A 
ATOM     16  C   UNL     1      20.993  20.402  11.165  0.00  0.00    +0.013 A 
ATOM     17  C   UNL     1      21.773  20.578  12.364  0.00  0.00    +0.005 A 
ATOM     18  C   UNL     1      22.378  21.879  12.640  0.00  0.00    -0.033 A 
ATOM     28  C   UNL     1      22.185  22.969  11.699  0.00  0.00    +0.005 A 
ATOM     29  C   UNL     1      21.420  22.801  10.523  0.00  0.00    +0.013 A 
BRANCH  18  19
ATOM     19  C   UNL     1      23.209  22.163  13.906  0.00  0.00    +0.119 C 
BRANCH  19  20
ATOM     20  N   UNL     1      22.461  22.503  15.153  0.00  0.00    -0.302 NA
ATOM     21  C   UNL     1      22.082  23.986  15.209  0.00  0.00    +0.066 C 
ATOM     22  C   UNL     1      21.280  24.319  16.509  0.00  0.00    -0.064 C 
ATOM     23  N   UNL     1      22.110  23.926  17.732  0.00  0.00    +0.379 N 
ATOM     24  C   UNL     1      21.384  24.292  18.957  0.00  0.00    -0.096 C 
ATOM     25  H   UNL     1      23.053  24.521  17.707  0.00  0.00    -0.082 HD
ATOM     26  C   UNL     1      22.494  22.453  17.683  0.00  0.00    -0.064 C 
ATOM     27  C   UNL     1      23.264  22.126  16.373  0.00  0.00    +0.066 C 
ENDBRANCH  19  20
ENDBRANCH  18  19
ENDBRANCH  14  15
ENDBRANCH  12  13
TORSDOF 6
ENDMDL
MODEL 3
REMARK VINA RESULT:      -8.4      2.306      3.018
REMARK  Name = C:\Users\Docking\Desktop\test protocol\1iep_ligandH.pdb
REMARK  8 active torsions:
REMARK  status: ('A' for Active; 'I' for Inactive)
REMARK    1  A    between atoms: _5  and  _11
REMARK    2  A    between atoms: _19  and  _21
REMARK    3  A    between atoms: _22  and  _66
REMARK    4  A    between atoms: _27  and  _30
REMARK    5  A    between atoms: _32  and  _33
REMARK    6  A    between atoms: _38  and  _43
REMARK    7  A    between atoms: _43  and  _46
REMARK    8  A    between atoms: _53  and  _55
REMARK                            x       y       z     vdW  Elec       q    Type
REMARK                         _______ _______ _______ _____ _____    ______ ____
ROOT
ATOM     10  C   UNL     1      20.076  25.660   3.951  0.00  0.00    +0.038 A 
ATOM     11  C   UNL     1      18.906  25.414   4.714  0.00  0.00    +0.047 A 
ATOM     12  C   UNL     1      18.297  24.093   4.754  0.00  0.00    +0.035 A 
ATOM     32  C   UNL     1      18.908  23.045   4.006  0.00  0.00    +0.024 A 
ATOM     33  C   UNL     1      20.097  23.278   3.224  0.00  0.00    +0.007 A 
ATOM     34  C   UNL     1      20.701  24.579   3.180  0.00  0.00    -0.029 A 
ATOM     35  C   UNL     1      21.971  24.772   2.320  0.00  0.00    +0.045 C 
ENDROOT
BRANCH  10   9
ATOM      4  C   UNL     1      21.027  29.849   1.810  0.00  0.00    +0.077 A 
ATOM      5  C   UNL     1      20.416  29.428   0.583  0.00  0.00    +0.048 A 
ATOM      6  C   UNL     1      19.875  28.123   0.542  0.00  0.00    +0.116 A 
ATOM      7  N   UNL     1      19.945  27.309   1.651  0.00  0.00    -0.223 NA
ATOM      8  C   UNL     1      20.543  27.746   2.819  0.00  0.00    +0.220 A 
ATOM      9  N   UNL     1      20.618  26.947   3.950  0.00  0.00    -0.283 N 
ATOM     36  H   UNL     1      21.074  27.303   4.789  0.00  0.00    +0.155 HD
ATOM     37  N   UNL     1      21.069  28.987   2.883  0.00  0.00    -0.214 NA
BRANCH   4   3
ATOM      1  C   UNL     1      22.998  33.178   1.230  0.00  0.00    +0.020 A 
ATOM      2  C   UNL     1      22.428  31.873   0.985  0.00  0.00    +0.013 A 
ATOM      3  C   UNL     1      21.641  31.200   2.011  0.00  0.00    +0.019 A 
ATOM     38  C   UNL     1      21.448  31.880   3.283  0.00  0.00    +0.120 A 
ATOM     39  N   UNL     1      22.011  33.135   3.490  0.00  0.00    -0.263 NA
ATOM     40  C   UNL     1      22.771  33.792   2.511  0.00  0.00    +0.111 A 
ENDBRANCH   4   3
ENDBRANCH  10   9
BRANCH  12  13
ATOM     13  N   UNL     1      17.104  23.786   5.504  0.00  0.00    -0.281 N 
ATOM     14  C   UNL     1      16.951  22.851   6.514  0.00  0.00    +0.248 C 
ATOM     30  O   UNL     1      17.768  21.982   6.782  0.00  0.00    -0.270 OA
ATOM     31  H   UNL     1      16.272  24.323   5.260  0.00  0.00    +0.155 HD
BRANCH  14  15
ATOM     15  C   UNL     1      15.704  22.874   7.337  0.00  0.00    +0.037 A 
ATOM     16  C   UNL     1      14.414  23.251   6.752  0.00  0.00    +0.013 A 
ATOM     17  C   UNL     1      13.229  23.283   7.572  0.00  0.00    +0.005 A 
ATOM     18  C   UNL     1      13.328  22.934   8.987  0.00  0.00    -0.033 A 
ATOM     28  C   UNL     1      14.619  22.559   9.540  0.00  0.00    +0.005 A 
ATOM     29  C   UNL     1      15.783  22.528   8.740  0.00  0.00    +0.013 A 
BRANCH  18  19
ATOM     19  C   UNL     1      12.120  22.960   9.941  0.00  0.00    +0.119 C 
BRANCH  19  20
ATOM     20  N   UNL     1      11.399  21.672  10.168  0.00  0.00    -0.302 NA
ATOM     21  C   UNL     1      10.402  21.367   9.046  0.00  0.00    +0.066 C 
ATOM     22  C   UNL     1       9.674  20.005   9.288  0.00  0.00    -0.064 C 
ATOM     23  N   UNL     1       8.968  20.040  10.644  0.00  0.00    +0.379 N 
ATOM     24  C   UNL     1       8.234  18.783  10.849  0.00  0.00    -0.096 C 
ATOM     25  H   UNL     1       8.221  20.868  10.615  0.00  0.00    -0.082 HD
ATOM     26  C   UNL     1       9.952  20.346  11.765  0.00  0.00    -0.064 C 
ATOM     27  C   UNL     1      10.692  21.687  11.501  0.00  0.00    +0.066 C 
ENDBRANCH  19  20
ENDBRANCH  18  19
ENDBRANCH  14  15
ENDBRANCH  12  13
TORSDOF 6
ENDMDL
MODEL 4
REMARK VINA RESULT:      -8.2      4.010     12.559
REMARK  Name = C:\Users\Docking\Desktop\test protocol\1iep_ligandH.pdb
REMARK  8 active torsions:
REMARK  status: ('A' for Active; 'I' for Inactive)
REMARK    1  A    between atoms: _5  and  _11
REMARK    2  A    between atoms: _19  and  _21
REMARK    3  A    between atoms: _22  and  _66
REMARK    4  A    between atoms: _27  and  _30
REMARK    5  A    between atoms: _32  and  _33
REMARK    6  A    between atoms: _38  and  _43
REMARK    7  A    between atoms: _43  and  _46
REMARK    8  A    between atoms: _53  and  _55
REMARK                            x       y       z     vdW  Elec       q    Type
REMARK                         _______ _______ _______ _____ _____    ______ ____
ROOT
ATOM     10  C   UNL     1      12.671  23.324   8.169  0.00  0.00    +0.038 A 
ATOM     11  C   UNL     1      13.840  23.580   7.407  0.00  0.00    +0.047 A 
ATOM     12  C   UNL     1      15.156  23.202   7.897  0.00  0.00    +0.035 A 
ATOM     32  C   UNL     1      15.245  22.561   9.168  0.00  0.00    +0.024 A 
ATOM     33  C   UNL     1      14.067  22.294   9.956  0.00  0.00    +0.007 A 
ATOM     34  C   UNL     1      12.767  22.667   9.478  0.00  0.00    -0.029 A 
ATOM     35  C   UNL     1      11.540  22.362  10.368  0.00  0.00    +0.045 C 
ENDROOT
BRANCH  10   9
ATOM      4  C   UNL     1       9.039  26.433   7.747  0.00  0.00    +0.077 A 
ATOM      5  C   UNL     1       9.647  27.358   8.660  0.00  0.00    +0.048 A 
ATOM      6  C   UNL     1      10.891  26.993   9.221  0.00  0.00    +0.116 A 
ATOM      7  N   UNL     1      11.475  25.790   8.887  0.00  0.00    -0.223 NA
ATOM      8  C   UNL     1      10.861  24.920   8.005  0.00  0.00    +0.220 A 
ATOM      9  N   UNL     1      11.433  23.708   7.649  0.00  0.00    -0.283 N 
ATOM     36  H   UNL     1      10.944  23.091   7.001  0.00  0.00    +0.155 HD
ATOM     37  N   UNL     1       9.671  25.245   7.457  0.00  0.00    -0.214 NA
BRANCH   4   3
ATOM      1  C   UNL     1       5.257  27.188   7.098  0.00  0.00    +0.020 A 
ATOM      2  C   UNL     1       6.498  26.959   7.801  0.00  0.00    +0.013 A 
ATOM      3  C   UNL     1       7.727  26.678   7.069  0.00  0.00    +0.019 A 
ATOM     38  C   UNL     1       7.666  26.637   5.616  0.00  0.00    +0.120 A 
ATOM     39  N   UNL     1       6.456  26.861   4.966  0.00  0.00    -0.263 NA
ATOM     40  C   UNL     1       5.266  27.130   5.660  0.00  0.00    +0.111 A 
ENDBRANCH   4   3
ENDBRANCH  10   9
BRANCH  12  13
ATOM     13  N   UNL     1      16.378  23.444   7.172  0.00  0.00    -0.281 N 
ATOM     14  C   UNL     1      16.904  22.710   6.121  0.00  0.00    +0.248 C 
ATOM     30  O   UNL     1      16.508  21.604   5.784  0.00  0.00    -0.270 OA
ATOM     31  H   UNL     1      16.922  24.254   7.469  0.00  0.00    +0.155 HD
BRANCH  14  15
ATOM     15  C   UNL     1      18.045  23.281   5.342  0.00  0.00    +0.037 A 
ATOM     16  C   UNL     1      18.004  24.653   4.830  0.00  0.00    +0.013 A 
ATOM     17  C   UNL     1      19.110  25.173   4.066  0.00  0.00    +0.005 A 
ATOM     18  C   UNL     1      20.268  24.320   3.811  0.00  0.00    -0.033 A 
ATOM     28  C   UNL     1      20.285  22.965   4.335  0.00  0.00    +0.005 A 
ATOM     29  C   UNL     1      19.202  22.451   5.083  0.00  0.00    +0.013 A 
BRANCH  18  19
ATOM     19  C   UNL     1      21.484  24.785   2.988  0.00  0.00    +0.119 C 
BRANCH  19  20
ATOM     20  N   UNL     1      22.482  23.746   2.596  0.00  0.00    -0.302 NA
ATOM     21  C   UNL     1      23.788  23.877   3.384  0.00  0.00    +0.066 C 
ATOM     22  C   UNL     1      24.813  22.768   2.977  0.00  0.00    -0.064 C 
ATOM     23  N   UNL     1      25.078  22.849   1.473  0.00  0.00    +0.379 N 
ATOM     24  C   UNL     1      26.084  21.846   1.097  0.00  0.00    -0.096 C 
ATOM     25  H   UNL     1      25.507  23.856   1.259  0.00  0.00    -0.082 HD
ATOM     26  C   UNL     1      23.784  22.722   0.682  0.00  0.00    -0.064 C 
ATOM     27  C   UNL     1      22.762  23.810   1.114  0.00  0.00    +0.066 C 
ENDBRANCH  19  20
ENDBRANCH  18  19
ENDBRANCH  14  15
ENDBRANCH  12  13
TORSDOF 6
ENDMDL
MODEL 5
REMARK VINA RESULT:      -8.2      9.422     16.017
REMARK  Name = C:\Users\Docking\Desktop\test protocol\1iep_ligandH.pdb
REMARK  8 active torsions:
REMARK  status: ('A' for Active; 'I' for Inactive)
REMARK    1  A    between atoms: _5  and  _11
REMARK    2  A    between atoms: _19  and  _21
REMARK    3  A    between atoms: _22  and  _66
REMARK    4  A    between atoms: _27  and  _30
REMARK    5  A    between atoms: _32  and  _33
REMARK    6  A    between atoms: _38  and  _43
REMARK    7  A    between atoms: _43  and  _46
REMARK    8  A    between atoms: _53  and  _55
REMARK                            x       y       z     vdW  Elec       q    Type
REMARK                         _______ _______ _______ _____ _____    ______ ____
ROOT
ATOM     10  C   UNL     1      10.505  17.749  11.833  0.00  0.00    +0.038 A 
ATOM     11  C   UNL     1      10.200  19.124  11.666  0.00  0.00    +0.047 A 
ATOM     12  C   UNL     1      10.813  19.908  10.606  0.00  0.00    +0.035 A 
ATOM     32  C   UNL     1      11.732  19.258   9.731  0.00  0.00    +0.024 A 
ATOM     33  C   UNL     1      12.055  17.862   9.886  0.00  0.00    +0.007 A 
ATOM     34  C   UNL     1      11.455  17.084  10.932  0.00  0.00    -0.029 A 
ATOM     35  C   UNL     1      11.842  15.592  11.056  0.00  0.00    +0.045 C 
ENDROOT
BRANCH  10   9
ATOM      4  C   UNL     1       6.812  15.289  13.663  0.00  0.00    +0.077 A 
ATOM      5  C   UNL     1       6.038  15.444  12.464  0.00  0.00    +0.048 A 
ATOM      6  C   UNL     1       6.625  16.170  11.403  0.00  0.00    +0.116 A 
ATOM      7  N   UNL     1       7.891  16.696  11.541  0.00  0.00    -0.223 NA
ATOM      8  C   UNL     1       8.609  16.530  12.711  0.00  0.00    +0.220 A 
ATOM      9  N   UNL     1       9.887  17.044  12.868  0.00  0.00    -0.283 N 
ATOM     36  H   UNL     1      10.380  16.906  13.749  0.00  0.00    +0.155 HD
ATOM     37  N   UNL     1       8.070  15.842  13.739  0.00  0.00    -0.214 NA
BRANCH   4   3
ATOM      1  C   UNL     1       4.638  14.079  16.681  0.00  0.00    +0.020 A 
ATOM      2  C   UNL     1       5.055  14.826  15.517  0.00  0.00    +0.013 A 
ATOM      3  C   UNL     1       6.331  14.546  14.870  0.00  0.00    +0.019 A 
ATOM     38  C   UNL     1       7.167  13.494  15.429  0.00  0.00    +0.120 A 
ATOM     39  N   UNL     1       6.739  12.792  16.552  0.00  0.00    -0.263 NA
ATOM     40  C   UNL     1       5.514  13.054  17.184  0.00  0.00    +0.111 A 
ENDBRANCH   4   3
ENDBRANCH  10   9
BRANCH  12  13
ATOM     13  N   UNL     1      10.548  21.309  10.393  0.00  0.00    -0.281 N 
ATOM     14  C   UNL     1      11.462  22.348  10.324  0.00  0.00    +0.248 C 
ATOM     30  O   UNL     1      12.636  22.258  10.651  0.00  0.00    -0.270 OA
ATOM     31  H   UNL     1       9.568  21.566  10.278  0.00  0.00    +0.155 HD
BRANCH  14  15
ATOM     15  C   UNL     1      11.002  23.683   9.836  0.00  0.00    +0.037 A 
ATOM     16  C   UNL     1      11.938  24.638   9.237  0.00  0.00    +0.013 A 
ATOM     17  C   UNL     1      11.471  25.926   8.790  0.00  0.00    +0.005 A 
ATOM     18  C   UNL     1      10.058  26.267   8.940  0.00  0.00    -0.033 A 
ATOM     28  C   UNL     1       9.150  25.299   9.533  0.00  0.00    +0.005 A 
ATOM     29  C   UNL     1       9.604  24.036   9.973  0.00  0.00    +0.013 A 
BRANCH  18  19
ATOM     19  C   UNL     1       9.475  27.626   8.511  0.00  0.00    +0.119 C 
BRANCH  19  20
ATOM     20  N   UNL     1       8.510  27.628   7.371  0.00  0.00    -0.302 NA
ATOM     21  C   UNL     1       7.091  27.268   7.820  0.00  0.00    +0.066 C 
ATOM     22  C   UNL     1       6.090  27.296   6.619  0.00  0.00    -0.064 C 
ATOM     23  N   UNL     1       6.575  26.335   5.532  0.00  0.00    +0.379 N 
ATOM     24  C   UNL     1       5.606  26.315   4.427  0.00  0.00    -0.096 C 
ATOM     25  H   UNL     1       6.604  25.312   5.975  0.00  0.00    -0.082 HD
ATOM     26  C   UNL     1       7.987  26.684   5.082  0.00  0.00    -0.064 C 
ATOM     27  C   UNL     1       8.967  26.682   6.288  0.00  0.00    +0.066 C 
ENDBRANCH  19  20
ENDBRANCH  18  19
ENDBRANCH  14  15
ENDBRANCH  12  13
TORSDOF 6
ENDMDL
