MODEL 1
REMARK VINA RESULT:      -8.8      0.000      0.000
REMARK  Name = C:\Users\Docking\Desktop\test protocol\1iep_ligandH.pdb
REMARK  8 active torsions:
REMARK  status: ('A' for Active; 'I' for Inactive)
REMARK    1  A    between atoms: _5  and  _11
REMARK    2  A    between atoms: _19  and  _21
REMARK    3  A    between atoms: _22  and  _66
REMARK    4  A    between atoms: _27  and  _30
REMARK    5  A    between atoms: _32  and  _33
REMARK    6  A    between atoms: _38  and  _43
REMARK    7  A    between atoms: _43  and  _46
REMARK    8  A    between atoms: _53  and  _55
REMARK                            x       y       z     vdW  Elec       q    Type
REMARK                         _______ _______ _______ _____ _____    ______ ____
ROOT
ATOM     10  C   UNL     1      14.795  21.181   7.512  0.00  0.00    +0.038 A 
ATOM     11  C   UNL     1      15.963  21.332   8.302  0.00  0.00    +0.047 A 
ATOM     12  C   UNL     1      16.962  20.277   8.379  0.00  0.00    +0.035 A 
ATOM     32  C   UNL     1      16.741  19.082   7.634  0.00  0.00    +0.024 A 
ATOM     33  C   UNL     1      15.559  18.911   6.826  0.00  0.00    +0.007 A 
ATOM     34  C   UNL     1      14.569  19.947   6.749  0.00  0.00    -0.029 A 
ATOM     35  C   UNL     1      13.318  19.706   5.872  0.00  0.00    +0.045 C 
ENDROOT
BRANCH  10   9
ATOM      4  C   UNL     1      11.202  23.722   9.427  0.00  0.00    +0.077 A 
ATOM      5  C   UNL     1      11.147  22.880  10.588  0.00  0.00    +0.048 A 
ATOM      6  C   UNL     1      12.056  21.800  10.650  0.00  0.00    +0.116 A 
ATOM      7  N   UNL     1      12.949  21.587   9.622  0.00  0.00    -0.223 NA
ATOM      8  C   UNL     1      12.974  22.416   8.516  0.00  0.00    +0.220 A 
ATOM      9  N   UNL     1      13.869  22.225   7.475  0.00  0.00    -0.283 N 
ATOM     36  H   UNL     1      13.851  22.855   6.673  0.00  0.00    +0.155 HD
ATOM     37  N   UNL     1      12.116  23.454   8.433  0.00  0.00    -0.214 NA
BRANCH   4   3
ATOM      1  C   UNL     1       9.900  27.382   8.974  0.00  0.00    +0.020 A 
ATOM      2  C   UNL     1      10.805  26.275   9.180  0.00  0.00    +0.013 A 
ATOM      3  C   UNL     1      10.309  24.905   9.217  0.00  0.00    +0.019 A 
ATOM     38  C   UNL     1       8.881  24.687   9.040  0.00  0.00    +0.120 A 
ATOM     39  N   UNL     1       8.033  25.773   8.845  0.00  0.00    -0.263 NA
ATOM     40  C   UNL     1       8.499  27.096   8.809  0.00  0.00    +0.111 A 
ENDBRANCH   4   3
ENDBRANCH  10   9
BRANCH  12  13
ATOM     13  N   UNL     1      18.163  20.371   9.171  0.00  0.00    -0.281 N 
ATOM     14  C   UNL     1      19.332  21.050   8.869  0.00  0.00    +0.248 C 
ATOM     30  O   UNL     1      19.601  21.507   7.767  0.00  0.00    -0.270 OA
ATOM     31  H   UNL     1      18.150  19.877  10.063  0.00  0.00    +0.155 HD
BRANCH  14  15
ATOM     15  C   UNL     1      20.357  21.237   9.941  0.00  0.00    +0.037 A 
ATOM     16  C   UNL     1      20.592  20.206  10.954  0.00  0.00    +0.013 A 
ATOM     17  C   UNL     1      21.575  20.418  11.987  0.00  0.00    +0.005 A 
ATOM     18  C   UNL     1      22.331  21.668  12.011  0.00  0.00    -0.033 A 
ATOM     28  C   UNL     1      22.081  22.672  10.989  0.00  0.00    +0.005 A 
ATOM     29  C   UNL     1      21.118  22.467   9.976  0.00  0.00    +0.013 A 
BRANCH  18  19
ATOM     19  C   UNL     1      23.383  21.989  13.088  0.00  0.00    +0.119 C 
BRANCH  19  20
ATOM     20  N   UNL     1      22.883  22.454  14.416  0.00  0.00    -0.302 NA
ATOM     21  C   UNL     1      22.597  23.958  14.427  0.00  0.00    +0.066 C 
ATOM     22  C   UNL     1      22.053  24.424  15.817  0.00  0.00    -0.064 C 
ATOM     23  N   UNL     1      23.063  24.056  16.906  0.00  0.00    +0.379 N 
ATOM     24  C   UNL     1      22.581  24.544  18.207  0.00  0.00    -0.096 C 
ATOM     25  H   UNL     1      24.015  24.587  16.677  0.00  0.00    -0.082 HD
ATOM     26  C   UNL     1      23.354  22.562  16.900  0.00  0.00    -0.064 C 
ATOM     27  C   UNL     1      23.867  22.105  15.506  0.00  0.00    +0.066 C 
ENDBRANCH  19  20
ENDBRANCH  18  19
ENDBRANCH  14  15
ENDBRANCH  12  13
TORSDOF 6
ENDMDL
MODEL 2
REMARK VINA RESULT:      -8.2      5.753      8.211
REMARK  Name = C:\Users\Docking\Desktop\test protocol\1iep_ligandH.pdb
REMARK  8 active torsions:
REMARK  status: ('A' for Active; 'I' for Inactive)
REMARK    1  A    between atoms: _5  and  _11
REMARK    2  A    between atoms: _19  and  _21
REMARK    3  A    between atoms: _22  and  _66
REMARK    4  A    between atoms: _27  and  _30
REMARK    5  A    between atoms: _32  and  _33
REMARK    6  A    between atoms: _38  and  _43
REMARK    7  A    between atoms: _43  and  _46
REMARK    8  A    between atoms: _53  and  _55
REMARK                            x       y       z     vdW  Elec       q    Type
REMARK                         _______ _______ _______ _____ _____    ______ ____
ROOT
ATOM     10  C   UNL     1      11.974  23.255   8.611  0.00  0.00    +0.038 A 
ATOM     11  C   UNL     1      13.159  23.449   7.856  0.00  0.00    +0.047 A 
ATOM     12  C   UNL     1      14.456  23.042   8.374  0.00  0.00    +0.035 A 
ATOM     32  C   UNL     1      14.509  22.437   9.663  0.00  0.00    +0.024 A 
ATOM     33  C   UNL     1      13.315  22.233  10.445  0.00  0.00    +0.007 A 
ATOM     34  C   UNL     1      12.033  22.635   9.941  0.00  0.00    -0.029 A 
ATOM     35  C   UNL     1      10.787  22.397  10.825  0.00  0.00    +0.045 C 
ENDROOT
BRANCH  10   9
ATOM      4  C   UNL     1       8.589  26.565   7.824  0.00  0.00    +0.077 A 
ATOM      5  C   UNL     1       9.295  27.554   8.585  0.00  0.00    +0.048 A 
ATOM      6  C   UNL     1      10.522  27.168   9.170  0.00  0.00    +0.116 A 
ATOM      7  N   UNL     1      10.998  25.887   8.998  0.00  0.00    -0.223 NA
ATOM      8  C   UNL     1      10.291  24.956   8.258  0.00  0.00    +0.220 A 
ATOM      9  N   UNL     1      10.755  23.664   8.066  0.00  0.00    -0.283 N 
ATOM     36  H   UNL     1      10.200  23.006   7.520  0.00  0.00    +0.155 HD
ATOM     37  N   UNL     1       9.116  25.299   7.692  0.00  0.00    -0.214 NA
BRANCH   4   3
ATOM      1  C   UNL     1       4.792  27.235   7.163  0.00  0.00    +0.020 A 
ATOM      2  C   UNL     1       6.028  26.989   7.869  0.00  0.00    +0.013 A 
ATOM      3  C   UNL     1       7.280  26.820   7.142  0.00  0.00    +0.019 A 
ATOM     38  C   UNL     1       7.247  26.907   5.690  0.00  0.00    +0.120 A 
ATOM     39  N   UNL     1       6.041  27.143   5.037  0.00  0.00    -0.263 NA
ATOM     40  C   UNL     1       4.830  27.306   5.726  0.00  0.00    +0.111 A 
ENDBRANCH   4   3
ENDBRANCH  10   9
BRANCH  12  13
ATOM     13  N   UNL     1      15.694  23.222   7.656  0.00  0.00    -0.281 N 
ATOM     14  C   UNL     1      16.327  22.324   6.813  0.00  0.00    +0.248 C 
ATOM     30  O   UNL     1      16.032  21.142   6.714  0.00  0.00    -0.270 OA
ATOM     31  H   UNL     1      16.160  24.120   7.786  0.00  0.00    +0.155 HD
BRANCH  14  15
ATOM     15  C   UNL     1      17.462  22.805   5.967  0.00  0.00    +0.037 A 
ATOM     16  C   UNL     1      18.772  22.152   6.011  0.00  0.00    +0.013 A 
ATOM     17  C   UNL     1      19.855  22.646   5.198  0.00  0.00    +0.005 A 
ATOM     18  C   UNL     1      19.630  23.801   4.331  0.00  0.00    -0.033 A 
ATOM     28  C   UNL     1      18.318  24.427   4.303  0.00  0.00    +0.005 A 
ATOM     29  C   UNL     1      17.255  23.945   5.100  0.00  0.00    +0.013 A 
BRANCH  18  19
ATOM     19  C   UNL     1      20.733  24.409   3.445  0.00  0.00    +0.119 C 
BRANCH  19  20
ATOM     20  N   UNL     1      20.360  25.580   2.597  0.00  0.00    -0.302 NA
ATOM     21  C   UNL     1      21.065  25.553   1.238  0.00  0.00    +0.066 C 
ATOM     22  C   UNL     1      20.647  26.773   0.355  0.00  0.00    -0.064 C 
ATOM     23  N   UNL     1      20.960  28.071   1.101  0.00  0.00    +0.379 N 
ATOM     24  C   UNL     1      20.621  29.221   0.250  0.00  0.00    -0.096 C 
ATOM     25  H   UNL     1      22.059  28.098   1.285  0.00  0.00    -0.082 HD
ATOM     26  C   UNL     1      20.265  28.105   2.455  0.00  0.00    -0.064 C 
ATOM     27  C   UNL     1      20.665  26.873   3.313  0.00  0.00    +0.066 C 
ENDBRANCH  19  20
ENDBRANCH  18  19
ENDBRANCH  14  15
ENDBRANCH  12  13
TORSDOF 6
ENDMDL
MODEL 3
REMARK VINA RESULT:      -8.1      5.822      7.850
REMARK  Name = C:\Users\Docking\Desktop\test protocol\1iep_ligandH.pdb
REMARK  8 active torsions:
REMARK  status: ('A' for Active; 'I' for Inactive)
REMARK    1  A    between atoms: _5  and  _11
REMARK    2  A    between atoms: _19  and  _21
REMARK    3  A    between atoms: _22  and  _66
REMARK    4  A    between atoms: _27  and  _30
REMARK    5  A    between atoms: _32  and  _33
REMARK    6  A    between atoms: _38  and  _43
REMARK    7  A    between atoms: _43  and  _46
REMARK    8  A    between atoms: _53  and  _55
REMARK                            x       y       z     vdW  Elec       q    Type
REMARK                         _______ _______ _______ _____ _____    ______ ____
ROOT
ATOM     10  C   UNL     1      12.213  23.259   8.325  0.00  0.00    +0.038 A 
ATOM     11  C   UNL     1      13.401  23.527   7.599  0.00  0.00    +0.047 A 
ATOM     12  C   UNL     1      14.702  23.121   8.108  0.00  0.00    +0.035 A 
ATOM     32  C   UNL     1      14.756  22.441   9.359  0.00  0.00    +0.024 A 
ATOM     33  C   UNL     1      13.559  22.161  10.111  0.00  0.00    +0.007 A 
ATOM     34  C   UNL     1      12.273  22.561   9.616  0.00  0.00    -0.029 A 
ATOM     35  C   UNL     1      11.023  22.240  10.468  0.00  0.00    +0.045 C 
ENDROOT
BRANCH  10   9
ATOM      4  C   UNL     1       8.724  26.503   7.747  0.00  0.00    +0.077 A 
ATOM      5  C   UNL     1       9.379  27.448   8.605  0.00  0.00    +0.048 A 
ATOM      6  C   UNL     1      10.608  27.057   9.182  0.00  0.00    +0.116 A 
ATOM      7  N   UNL     1      11.135  25.812   8.912  0.00  0.00    -0.223 NA
ATOM      8  C   UNL     1      10.476  24.924   8.081  0.00  0.00    +0.220 A 
ATOM      9  N   UNL     1      10.991  23.671   7.790  0.00  0.00    -0.283 N 
ATOM     36  H   UNL     1      10.471  23.042   7.178  0.00  0.00    +0.155 HD
ATOM     37  N   UNL     1       9.300  25.273   7.519  0.00  0.00    -0.214 NA
BRANCH   4   3
ATOM      1  C   UNL     1       4.931  27.180   7.071  0.00  0.00    +0.020 A 
ATOM      2  C   UNL     1       6.163  26.923   7.781  0.00  0.00    +0.013 A 
ATOM      3  C   UNL     1       7.421  26.771   7.061  0.00  0.00    +0.019 A 
ATOM     38  C   UNL     1       7.398  26.887   5.610  0.00  0.00    +0.120 A 
ATOM     39  N   UNL     1       6.197  27.134   4.953  0.00  0.00    -0.263 NA
ATOM     40  C   UNL     1       4.980  27.281   5.636  0.00  0.00    +0.111 A 
ENDBRANCH   4   3
ENDBRANCH  10   9
BRANCH  12  13
ATOM     13  N   UNL     1      15.944  23.374   7.418  0.00  0.00    -0.281 N 
ATOM     14  C   UNL     1      16.632  22.526   6.566  0.00  0.00    +0.248 C 
ATOM     30  O   UNL     1      16.393  21.335   6.434  0.00  0.00    -0.270 OA
ATOM     31  H   UNL     1      16.366  24.289   7.578  0.00  0.00    +0.155 HD
BRANCH  14  15
ATOM     15  C   UNL     1      17.759  23.078   5.754  0.00  0.00    +0.037 A 
ATOM     16  C   UNL     1      17.592  24.290   4.947  0.00  0.00    +0.013 A 
ATOM     17  C   UNL     1      18.689  24.791   4.159  0.00  0.00    +0.005 A 
ATOM     18  C   UNL     1      19.966  24.081   4.175  0.00  0.00    -0.033 A 
ATOM     28  C   UNL     1      20.106  22.884   4.989  0.00  0.00    +0.005 A 
ATOM     29  C   UNL     1      19.032  22.389   5.762  0.00  0.00    +0.013 A 
BRANCH  18  19
ATOM     19  C   UNL     1      21.185  24.532   3.349  0.00  0.00    +0.119 C 
BRANCH  19  20
ATOM     20  N   UNL     1      22.193  23.489   2.992  0.00  0.00    -0.302 NA
ATOM     21  C   UNL     1      23.600  23.866   3.463  0.00  0.00    +0.066 C 
ATOM     22  C   UNL     1      24.638  22.754   3.101  0.00  0.00    -0.064 C 
ATOM     23  N   UNL     1      24.618  22.514   1.590  0.00  0.00    +0.379 N 
ATOM     24  C   UNL     1      25.634  21.510   1.240  0.00  0.00    -0.096 C 
ATOM     25  H   UNL     1      24.902  23.470   1.093  0.00  0.00    -0.082 HD
ATOM     26  C   UNL     1      23.222  22.142   1.113  0.00  0.00    -0.064 C 
ATOM     27  C   UNL     1      22.193  23.240   1.504  0.00  0.00    +0.066 C 
ENDBRANCH  19  20
ENDBRANCH  18  19
ENDBRANCH  14  15
ENDBRANCH  12  13
TORSDOF 6
ENDMDL
MODEL 4
REMARK VINA RESULT:      -7.9      7.508     11.862
REMARK  Name = C:\Users\Docking\Desktop\test protocol\1iep_ligandH.pdb
REMARK  8 active torsions:
REMARK  status: ('A' for Active; 'I' for Inactive)
REMARK    1  A    between atoms: _5  and  _11
REMARK    2  A    between atoms: _19  and  _21
REMARK    3  A    between atoms: _22  and  _66
REMARK    4  A    between atoms: _27  and  _30
REMARK    5  A    between atoms: _32  and  _33
REMARK    6  A    between atoms: _38  and  _43
REMARK    7  A    between atoms: _43  and  _46
REMARK    8  A    between atoms: _53  and  _55
REMARK                            x       y       z     vdW  Elec       q    Type
REMARK                         _______ _______ _______ _____ _____    ______ ____
ROOT
ATOM     10  C   UNL     1      20.037  25.533   3.901  0.00  0.00    +0.038 A 
ATOM     11  C   UNL     1      18.819  25.266   4.576  0.00  0.00    +0.047 A 
ATOM     12  C   UNL     1      18.241  23.931   4.586  0.00  0.00    +0.035 A 
ATOM     32  C   UNL     1      18.932  22.891   3.899  0.00  0.00    +0.024 A 
ATOM     33  C   UNL     1      20.171  23.145   3.207  0.00  0.00    +0.007 A 
ATOM     34  C   UNL     1      20.745  24.460   3.191  0.00  0.00    -0.029 A 
ATOM     35  C   UNL     1      22.072  24.676   2.427  0.00  0.00    +0.045 C 
ENDROOT
BRANCH  10   9
ATOM      4  C   UNL     1      20.986  29.745   1.804  0.00  0.00    +0.077 A 
ATOM      5  C   UNL     1      20.445  29.310   0.549  0.00  0.00    +0.048 A 
ATOM      6  C   UNL     1      19.938  27.992   0.483  0.00  0.00    +0.116 A 
ATOM      7  N   UNL     1      19.976  27.180   1.596  0.00  0.00    -0.223 NA
ATOM      8  C   UNL     1      20.507  27.630   2.790  0.00  0.00    +0.220 A 
ATOM      9  N   UNL     1      20.547  26.833   3.924  0.00  0.00    -0.283 N 
ATOM     36  H   UNL     1      20.954  27.200   4.784  0.00  0.00    +0.155 HD
ATOM     37  N   UNL     1      20.998  28.884   2.879  0.00  0.00    -0.214 NA
BRANCH   4   3
ATOM      1  C   UNL     1      22.911  33.116   1.322  0.00  0.00    +0.020 A 
ATOM      2  C   UNL     1      22.386  31.798   1.052  0.00  0.00    +0.013 A 
ATOM      3  C   UNL     1      21.556  31.111   2.033  0.00  0.00    +0.019 A 
ATOM     38  C   UNL     1      21.272  31.792   3.288  0.00  0.00    +0.120 A 
ATOM     39  N   UNL     1      21.793  33.061   3.521  0.00  0.00    -0.263 NA
ATOM     40  C   UNL     1      22.595  33.731   2.584  0.00  0.00    +0.111 A 
ENDBRANCH   4   3
ENDBRANCH  10   9
BRANCH  12  13
ATOM     13  N   UNL     1      17.003  23.602   5.248  0.00  0.00    -0.281 N 
ATOM     14  C   UNL     1      16.815  22.765   6.335  0.00  0.00    +0.248 C 
ATOM     30  O   UNL     1      17.662  22.000   6.773  0.00  0.00    -0.270 OA
ATOM     31  H   UNL     1      16.163  24.040   4.868  0.00  0.00    +0.155 HD
BRANCH  14  15
ATOM     15  C   UNL     1      15.491  22.767   7.027  0.00  0.00    +0.037 A 
ATOM     16  C   UNL     1      15.396  22.847   8.487  0.00  0.00    +0.013 A 
ATOM     17  C   UNL     1      14.106  22.830   9.131  0.00  0.00    +0.005 A 
ATOM     18  C   UNL     1      12.900  22.733   8.313  0.00  0.00    -0.033 A 
ATOM     28  C   UNL     1      13.022  22.659   6.867  0.00  0.00    +0.005 A 
ATOM     29  C   UNL     1      14.284  22.675   6.233  0.00  0.00    +0.013 A 
BRANCH  18  19
ATOM     19  C   UNL     1      11.483  22.687   8.916  0.00  0.00    +0.119 C 
BRANCH  19  20
ATOM     20  N   UNL     1      10.819  23.993   9.202  0.00  0.00    -0.302 NA
ATOM     21  C   UNL     1       9.403  24.058   8.621  0.00  0.00    +0.066 C 
ATOM     22  C   UNL     1       8.715  25.422   8.949  0.00  0.00    -0.064 C 
ATOM     23  N   UNL     1       9.575  26.567   8.410  0.00  0.00    +0.379 N 
ATOM     24  C   UNL     1       8.902  27.849   8.666  0.00  0.00    -0.096 C 
ATOM     25  H   UNL     1       9.652  26.440   7.305  0.00  0.00    -0.082 HD
ATOM     26  C   UNL     1      10.984  26.509   8.981  0.00  0.00    -0.064 C 
ATOM     27  C   UNL     1      11.649  25.137   8.674  0.00  0.00    +0.066 C 
ENDBRANCH  19  20
ENDBRANCH  18  19
ENDBRANCH  14  15
ENDBRANCH  12  13
TORSDOF 6
ENDMDL
MODEL 5
REMARK VINA RESULT:      -7.8      2.023      2.483
REMARK  Name = C:\Users\Docking\Desktop\test protocol\1iep_ligandH.pdb
REMARK  8 active torsions:
REMARK  status: ('A' for Active; 'I' for Inactive)
REMARK    1  A    between atoms: _5  and  _11
REMARK    2  A    between atoms: _19  and  _21
REMARK    3  A    between atoms: _22  and  _66
REMARK    4  A    between atoms: _27  and  _30
REMARK    5  A    between atoms: _32  and  _33
REMARK    6  A    between atoms: _38  and  _43
REMARK    7  A    between atoms: _43  and  _46
REMARK    8  A    between atoms: _53  and  _55
REMARK                            x       y       z     vdW  Elec       q    Type
REMARK                         _______ _______ _______ _____ _____    ______ ____
ROOT
ATOM     10  C   UNL     1      15.487  18.816   7.975  0.00  0.00    +0.038 A 
ATOM     11  C   UNL     1      16.531  19.269   8.822  0.00  0.00    +0.047 A 
ATOM     12  C   UNL     1      17.926  19.124   8.440  0.00  0.00    +0.035 A 
ATOM     32  C   UNL     1      18.223  18.515   7.186  0.00  0.00    +0.024 A 
ATOM     33  C   UNL     1      17.175  18.048   6.313  0.00  0.00    +0.007 A 
ATOM     34  C   UNL     1      15.796  18.186   6.686  0.00  0.00    -0.029 A 
ATOM     35  C   UNL     1      14.714  17.662   5.714  0.00  0.00    +0.045 C 
ENDROOT
BRANCH  10   9
ATOM      4  C   UNL     1      11.725  21.564   9.132  0.00  0.00    +0.077 A 
ATOM      5  C   UNL     1      12.465  22.773   8.912  0.00  0.00    +0.048 A 
ATOM      6  C   UNL     1      13.813  22.644   8.509  0.00  0.00    +0.116 A 
ATOM      7  N   UNL     1      14.369  21.394   8.341  0.00  0.00    -0.223 NA
ATOM      8  C   UNL     1      13.628  20.248   8.563  0.00  0.00    +0.220 A 
ATOM      9  N   UNL     1      14.164  18.981   8.392  0.00  0.00    -0.283 N 
ATOM     36  H   UNL     1      13.586  18.161   8.573  0.00  0.00    +0.155 HD
ATOM     37  N   UNL     1      12.339  20.344   8.950  0.00  0.00    -0.214 NA
BRANCH   4   3
ATOM      1  C   UNL     1       8.114  22.660  10.161  0.00  0.00    +0.020 A 
ATOM      2  C   UNL     1       9.496  22.743   9.750  0.00  0.00    +0.013 A 
ATOM      3  C   UNL     1      10.289  21.535   9.557  0.00  0.00    +0.019 A 
ATOM     38  C   UNL     1       9.648  20.250   9.789  0.00  0.00    +0.120 A 
ATOM     39  N   UNL     1       8.316  20.201  10.185  0.00  0.00    -0.263 NA
ATOM     40  C   UNL     1       7.543  21.356  10.376  0.00  0.00    +0.111 A 
ENDBRANCH   4   3
ENDBRANCH  10   9
BRANCH  12  13
ATOM     13  N   UNL     1      19.029  19.557   9.262  0.00  0.00    -0.281 N 
ATOM     14  C   UNL     1      19.746  20.739   9.171  0.00  0.00    +0.248 C 
ATOM     30  O   UNL     1      19.686  21.513   8.228  0.00  0.00    -0.270 OA
ATOM     31  H   UNL     1      19.315  18.914  10.001  0.00  0.00    +0.155 HD
BRANCH  14  15
ATOM     15  C   UNL     1      20.675  21.107  10.283  0.00  0.00    +0.037 A 
ATOM     16  C   UNL     1      20.999  20.155  11.349  0.00  0.00    +0.013 A 
ATOM     17  C   UNL     1      21.885  20.542  12.419  0.00  0.00    +0.005 A 
ATOM     18  C   UNL     1      22.455  21.887  12.426  0.00  0.00    -0.033 A 
ATOM     28  C   UNL     1      22.121  22.809  11.352  0.00  0.00    +0.005 A 
ATOM     29  C   UNL     1      21.252  22.434  10.303  0.00  0.00    +0.013 A 
BRANCH  18  19
ATOM     19  C   UNL     1      23.393  22.392  13.538  0.00  0.00    +0.119 C 
BRANCH  19  20
ATOM     20  N   UNL     1      22.774  22.721  14.857  0.00  0.00    -0.302 NA
ATOM     21  C   UNL     1      22.349  24.190  14.942  0.00  0.00    +0.066 C 
ATOM     22  C   UNL     1      21.683  24.511  16.319  0.00  0.00    -0.064 C 
ATOM     23  N   UNL     1      22.657  24.163  17.447  0.00  0.00    +0.379 N 
ATOM     24  C   UNL     1      22.056  24.518  18.741  0.00  0.00    -0.096 C 
ATOM     25  H   UNL     1      23.568  24.791  17.313  0.00  0.00    -0.082 HD
ATOM     26  C   UNL     1      23.086  22.704  17.368  0.00  0.00    -0.064 C 
ATOM     27  C   UNL     1      23.720  22.388  15.984  0.00  0.00    +0.066 C 
ENDBRANCH  19  20
ENDBRANCH  18  19
ENDBRANCH  14  15
ENDBRANCH  12  13
TORSDOF 6
ENDMDL
