MODEL 1
REMARK VINA RESULT:     -10.5      0.000      0.000
REMARK  Name = C:\Users\Docking\Desktop\test protocol\1iep_ligandH.pdb
REMARK  8 active torsions:
REMARK  status: ('A' for Active; 'I' for Inactive)
REMARK    1  A    between atoms: _5  and  _11
REMARK    2  A    between atoms: _19  and  _21
REMARK    3  A    between atoms: _22  and  _66
REMARK    4  A    between atoms: _27  and  _30
REMARK    5  A    between atoms: _32  and  _33
REMARK    6  A    between atoms: _38  and  _43
REMARK    7  A    between atoms: _43  and  _46
REMARK    8  A    between atoms: _53  and  _55
REMARK                            x       y       z     vdW  Elec       q    Type
REMARK                         _______ _______ _______ _____ _____    ______ ____
ROOT
ATOM     10  C   UNL     1       9.266  25.675  19.178  0.00  0.00    +0.038 A 
ATOM     11  C   UNL     1      10.512  25.383  18.567  0.00  0.00    +0.047 A 
ATOM     12  C   UNL     1      11.064  24.038  18.590  0.00  0.00    +0.035 A 
ATOM     32  C   UNL     1      10.319  23.013  19.243  0.00  0.00    +0.024 A 
ATOM     33  C   UNL     1       9.052  23.292  19.871  0.00  0.00    +0.007 A 
ATOM     34  C   UNL     1       8.503  24.618  19.853  0.00  0.00    -0.029 A 
ATOM     35  C   UNL     1       7.143  24.862  20.548  0.00  0.00    +0.045 C 
ENDROOT
BRANCH  10   9
ATOM      4  C   UNL     1       8.259  29.901  21.220  0.00  0.00    +0.077 A 
ATOM      5  C   UNL     1       8.709  29.453  22.507  0.00  0.00    +0.048 A 
ATOM      6  C   UNL     1       9.185  28.126  22.602  0.00  0.00    +0.116 A 
ATOM      7  N   UNL     1       9.206  27.316  21.487  0.00  0.00    -0.223 NA
ATOM      8  C   UNL     1       8.763  27.779  20.262  0.00  0.00    +0.220 A 
ATOM      9  N   UNL     1       8.783  26.985  19.126  0.00  0.00    -0.283 N 
ATOM     36  H   UNL     1       8.440  27.361  18.242  0.00  0.00    +0.155 HD
ATOM     37  N   UNL     1       8.302  29.042  20.145  0.00  0.00    -0.214 NA
BRANCH   4   3
ATOM      1  C   UNL     1       6.332  33.287  21.564  0.00  0.00    +0.020 A 
ATOM      2  C   UNL     1       6.813  31.958  21.863  0.00  0.00    +0.013 A 
ATOM      3  C   UNL     1       7.731  31.277  20.959  0.00  0.00    +0.019 A 
ATOM     38  C   UNL     1       8.148  31.974  19.752  0.00  0.00    +0.120 A 
ATOM     39  N   UNL     1       7.668  33.254  19.489  0.00  0.00    -0.263 NA
ATOM     40  C   UNL     1       6.783  33.918  20.351  0.00  0.00    +0.111 A 
ENDBRANCH   4   3
ENDBRANCH  10   9
BRANCH  12  13
ATOM     13  N   UNL     1      12.328  23.683  17.993  0.00  0.00    -0.281 N 
ATOM     14  C   UNL     1      12.554  22.855  16.906  0.00  0.00    +0.248 C 
ATOM     30  O   UNL     1      11.713  22.120  16.410  0.00  0.00    -0.270 OA
ATOM     31  H   UNL     1      13.157  24.092  18.425  0.00  0.00    +0.155 HD
BRANCH  14  15
ATOM     15  C   UNL     1      13.915  22.829  16.288  0.00  0.00    +0.037 A 
ATOM     16  C   UNL     1      15.110  23.163  17.068  0.00  0.00    +0.013 A 
ATOM     17  C   UNL     1      16.409  23.146  16.444  0.00  0.00    +0.005 A 
ATOM     18  C   UNL     1      16.519  22.793  15.030  0.00  0.00    -0.033 A 
ATOM     28  C   UNL     1      15.318  22.461  14.282  0.00  0.00    +0.005 A 
ATOM     29  C   UNL     1      14.043  22.477  14.890  0.00  0.00    +0.013 A 
BRANCH  18  19
ATOM     19  C   UNL     1      17.862  22.771  14.277  0.00  0.00    +0.119 C 
BRANCH  19  20
ATOM     20  N   UNL     1      18.045  21.715  13.236  0.00  0.00    -0.302 NA
ATOM     21  C   UNL     1      18.124  20.313  13.847  0.00  0.00    +0.066 C 
ATOM     22  C   UNL     1      18.292  19.219  12.743  0.00  0.00    -0.064 C 
ATOM     23  N   UNL     1      19.543  19.521  11.917  0.00  0.00    +0.379 N 
ATOM     24  C   UNL     1      19.737  18.463  10.915  0.00  0.00    -0.096 C 
ATOM     25  H   UNL     1      20.418  19.497  12.608  0.00  0.00    -0.082 HD
ATOM     26  C   UNL     1      19.475  20.914  11.308  0.00  0.00    -0.064 C 
ATOM     27  C   UNL     1      19.278  21.991  12.411  0.00  0.00    +0.066 C 
ENDBRANCH  19  20
ENDBRANCH  18  19
ENDBRANCH  14  15
ENDBRANCH  12  13
TORSDOF 6
ENDMDL
MODEL 2
REMARK VINA RESULT:     -10.4      3.029     13.985
REMARK  Name = C:\Users\Docking\Desktop\test protocol\1iep_ligandH.pdb
REMARK  8 active torsions:
REMARK  status: ('A' for Active; 'I' for Inactive)
REMARK    1  A    between atoms: _5  and  _11
REMARK    2  A    between atoms: _19  and  _21
REMARK    3  A    between atoms: _22  and  _66
REMARK    4  A    between atoms: _27  and  _30
REMARK    5  A    between atoms: _32  and  _33
REMARK    6  A    between atoms: _38  and  _43
REMARK    7  A    between atoms: _43  and  _46
REMARK    8  A    between atoms: _53  and  _55
REMARK                            x       y       z     vdW  Elec       q    Type
REMARK                         _______ _______ _______ _____ _____    ______ ____
ROOT
ATOM     10  C   UNL     1      10.652  25.739  20.141  0.00  0.00    +0.038 A 
ATOM     11  C   UNL     1      10.009  26.967  19.843  0.00  0.00    +0.047 A 
ATOM     12  C   UNL     1       8.995  27.520  20.728  0.00  0.00    +0.035 A 
ATOM     32  C   UNL     1       8.663  26.796  21.910  0.00  0.00    +0.024 A 
ATOM     33  C   UNL     1       9.307  25.546  22.229  0.00  0.00    +0.007 A 
ATOM     34  C   UNL     1      10.306  24.995  21.358  0.00  0.00    -0.029 A 
ATOM     35  C   UNL     1      10.959  23.647  21.746  0.00  0.00    +0.045 C 
ENDROOT
BRANCH  10   9
ATOM      4  C   UNL     1      12.114  22.718  16.710  0.00  0.00    +0.077 A 
ATOM      5  C   UNL     1      10.855  22.029  16.698  0.00  0.00    +0.048 A 
ATOM      6  C   UNL     1       9.861  22.479  17.595  0.00  0.00    +0.116 A 
ATOM      7  N   UNL     1      10.117  23.540  18.437  0.00  0.00    -0.223 NA
ATOM      8  C   UNL     1      11.342  24.181  18.424  0.00  0.00    +0.220 A 
ATOM      9  N   UNL     1      11.618  25.254  19.256  0.00  0.00    -0.283 N 
ATOM     36  H   UNL     1      12.537  25.695  19.222  0.00  0.00    +0.155 HD
ATOM     37  N   UNL     1      12.309  23.769  17.578  0.00  0.00    -0.214 NA
BRANCH   4   3
ATOM      1  C   UNL     1      14.303  21.063  13.922  0.00  0.00    +0.020 A 
ATOM      2  C   UNL     1      13.163  21.369  14.756  0.00  0.00    +0.013 A 
ATOM      3  C   UNL     1      13.263  22.362  15.818  0.00  0.00    +0.019 A 
ATOM     38  C   UNL     1      14.539  23.033  16.012  0.00  0.00    +0.120 A 
ATOM     39  N   UNL     1      15.620  22.716  15.195  0.00  0.00    -0.263 NA
ATOM     40  C   UNL     1      15.537  21.762  14.170  0.00  0.00    +0.111 A 
ENDBRANCH   4   3
ENDBRANCH  10   9
BRANCH  12  13
ATOM     13  N   UNL     1       8.302  28.758  20.473  0.00  0.00    -0.281 N 
ATOM     14  C   UNL     1       8.276  29.897  21.260  0.00  0.00    +0.248 C 
ATOM     30  O   UNL     1       8.675  29.949  22.414  0.00  0.00    -0.270 OA
ATOM     31  H   UNL     1       7.765  28.799  19.606  0.00  0.00    +0.155 HD
BRANCH  14  15
ATOM     15  C   UNL     1       7.712  31.158  20.688  0.00  0.00    +0.037 A 
ATOM     16  C   UNL     1       6.637  31.127  19.693  0.00  0.00    +0.013 A 
ATOM     17  C   UNL     1       6.123  32.357  19.145  0.00  0.00    +0.005 A 
ATOM     18  C   UNL     1       6.684  33.629  19.591  0.00  0.00    -0.033 A 
ATOM     28  C   UNL     1       7.747  33.632  20.583  0.00  0.00    +0.005 A 
ATOM     29  C   UNL     1       8.254  32.428  21.122  0.00  0.00    +0.013 A 
BRANCH  18  19
ATOM     19  C   UNL     1       6.212  34.990  19.044  0.00  0.00    +0.119 C 
BRANCH  19  20
ATOM     20  N   UNL     1       5.233  35.756  19.871  0.00  0.00    -0.302 NA
ATOM     21  C   UNL     1       5.797  37.105  20.326  0.00  0.00    +0.066 C 
ATOM     22  C   UNL     1       4.751  37.904  21.171  0.00  0.00    -0.064 C 
ATOM     23  N   UNL     1       4.323  37.062  22.374  0.00  0.00    +0.379 N 
ATOM     24  C   UNL     1       3.384  37.833  23.202  0.00  0.00    -0.096 C 
ATOM     25  H   UNL     1       5.232  36.864  22.989  0.00  0.00    -0.082 HD
ATOM     26  C   UNL     1       3.763  35.718  21.931  0.00  0.00    -0.064 C 
ATOM     27  C   UNL     1       4.799  34.946  21.068  0.00  0.00    +0.066 C 
ENDBRANCH  19  20
ENDBRANCH  18  19
ENDBRANCH  14  15
ENDBRANCH  12  13
TORSDOF 6
ENDMDL
MODEL 3
REMARK VINA RESULT:     -10.3      2.047      3.045
REMARK  Name = C:\Users\Docking\Desktop\test protocol\1iep_ligandH.pdb
REMARK  8 active torsions:
REMARK  status: ('A' for Active; 'I' for Inactive)
REMARK    1  A    between atoms: _5  and  _11
REMARK    2  A    between atoms: _19  and  _21
REMARK    3  A    between atoms: _22  and  _66
REMARK    4  A    between atoms: _27  and  _30
REMARK    5  A    between atoms: _32  and  _33
REMARK    6  A    between atoms: _38  and  _43
REMARK    7  A    between atoms: _43  and  _46
REMARK    8  A    between atoms: _53  and  _55
REMARK                            x       y       z     vdW  Elec       q    Type
REMARK                         _______ _______ _______ _____ _____    ______ ____
ROOT
ATOM     10  C   UNL     1       9.210  25.647  19.356  0.00  0.00    +0.038 A 
ATOM     11  C   UNL     1      10.499  25.319  18.864  0.00  0.00    +0.047 A 
ATOM     12  C   UNL     1      11.018  23.964  18.956  0.00  0.00    +0.035 A 
ATOM     32  C   UNL     1      10.195  22.965  19.554  0.00  0.00    +0.024 A 
ATOM     33  C   UNL     1       8.883  23.280  20.060  0.00  0.00    +0.007 A 
ATOM     34  C   UNL     1       8.367  24.616  19.974  0.00  0.00    -0.029 A 
ATOM     35  C   UNL     1       6.955  24.898  20.539  0.00  0.00    +0.045 C 
ENDROOT
BRANCH  10   9
ATOM      4  C   UNL     1       8.236  29.963  21.216  0.00  0.00    +0.077 A 
ATOM      5  C   UNL     1       8.628  29.550  22.532  0.00  0.00    +0.048 A 
ATOM      6  C   UNL     1       9.067  28.216  22.690  0.00  0.00    +0.116 A 
ATOM      7  N   UNL     1       9.108  27.368  21.605  0.00  0.00    -0.223 NA
ATOM      8  C   UNL     1       8.721  27.798  20.349  0.00  0.00    +0.220 A 
ATOM      9  N   UNL     1       8.762  26.964  19.242  0.00  0.00    -0.283 N 
ATOM     36  H   UNL     1       8.461  27.317  18.333  0.00  0.00    +0.155 HD
ATOM     37  N   UNL     1       8.296  29.066  20.172  0.00  0.00    -0.214 NA
BRANCH   4   3
ATOM      1  C   UNL     1       6.312  33.367  21.321  0.00  0.00    +0.020 A 
ATOM      2  C   UNL     1       6.744  32.036  21.680  0.00  0.00    +0.013 A 
ATOM      3  C   UNL     1       7.752  31.341  20.888  0.00  0.00    +0.019 A 
ATOM     38  C   UNL     1       8.307  32.027  19.731  0.00  0.00    +0.120 A 
ATOM     39  N   UNL     1       7.870  33.308  19.409  0.00  0.00    -0.263 NA
ATOM     40  C   UNL     1       6.900  33.986  20.162  0.00  0.00    +0.111 A 
ENDBRANCH   4   3
ENDBRANCH  10   9
BRANCH  12  13
ATOM     13  N   UNL     1      12.323  23.574  18.482  0.00  0.00    -0.281 N 
ATOM     14  C   UNL     1      12.647  22.980  17.273  0.00  0.00    +0.248 C 
ATOM     30  O   UNL     1      11.833  22.496  16.501  0.00  0.00    -0.270 OA
ATOM     31  H   UNL     1      13.102  23.759  19.113  0.00  0.00    +0.155 HD
BRANCH  14  15
ATOM     15  C   UNL     1      14.084  22.898  16.871  0.00  0.00    +0.037 A 
ATOM     16  C   UNL     1      14.488  23.023  15.468  0.00  0.00    +0.013 A 
ATOM     17  C   UNL     1      15.880  22.924  15.105  0.00  0.00    +0.005 A 
ATOM     18  C   UNL     1      16.878  22.700  16.148  0.00  0.00    -0.033 A 
ATOM     28  C   UNL     1      16.449  22.585  17.532  0.00  0.00    +0.005 A 
ATOM     29  C   UNL     1      15.086  22.681  17.892  0.00  0.00    +0.013 A 
BRANCH  18  19
ATOM     19  C   UNL     1      18.382  22.560  15.850  0.00  0.00    +0.119 C 
BRANCH  19  20
ATOM     20  N   UNL     1      19.172  23.820  15.714  0.00  0.00    -0.302 NA
ATOM     21  C   UNL     1      18.614  24.946  16.589  0.00  0.00    +0.066 C 
ATOM     22  C   UNL     1      19.465  26.250  16.451  0.00  0.00    -0.064 C 
ATOM     23  N   UNL     1      19.508  26.675  14.983  0.00  0.00    +0.379 N 
ATOM     24  C   UNL     1      20.260  27.933  14.858  0.00  0.00    -0.096 C 
ATOM     25  H   UNL     1      18.460  26.874  14.658  0.00  0.00    -0.082 HD
ATOM     26  C   UNL     1      20.060  25.560  14.106  0.00  0.00    -0.064 C 
ATOM     27  C   UNL     1      19.224  24.261  14.272  0.00  0.00    +0.066 C 
ENDBRANCH  19  20
ENDBRANCH  18  19
ENDBRANCH  14  15
ENDBRANCH  12  13
TORSDOF 6
ENDMDL
MODEL 4
REMARK VINA RESULT:     -10.2      3.950     14.411
REMARK  Name = C:\Users\Docking\Desktop\test protocol\1iep_ligandH.pdb
REMARK  8 active torsions:
REMARK  status: ('A' for Active; 'I' for Inactive)
REMARK    1  A    between atoms: _5  and  _11
REMARK    2  A    between atoms: _19  and  _21
REMARK    3  A    between atoms: _22  and  _66
REMARK    4  A    between atoms: _27  and  _30
REMARK    5  A    between atoms: _32  and  _33
REMARK    6  A    between atoms: _38  and  _43
REMARK    7  A    between atoms: _43  and  _46
REMARK    8  A    between atoms: _53  and  _55
REMARK                            x       y       z     vdW  Elec       q    Type
REMARK                         _______ _______ _______ _____ _____    ______ ____
ROOT
ATOM     10  C   UNL     1      10.156  27.616  20.884  0.00  0.00    +0.038 A 
ATOM     11  C   UNL     1       9.581  28.724  20.211  0.00  0.00    +0.047 A 
ATOM     12  C   UNL     1       8.735  29.675  20.914  0.00  0.00    +0.035 A 
ATOM     32  C   UNL     1       8.496  29.468  22.304  0.00  0.00    +0.024 A 
ATOM     33  C   UNL     1       9.072  28.346  23.004  0.00  0.00    +0.007 A 
ATOM     34  C   UNL     1       9.906  27.403  22.314  0.00  0.00    -0.029 A 
ATOM     35  C   UNL     1      10.491  26.216  23.113  0.00  0.00    +0.045 C 
ENDROOT
BRANCH  10   9
ATOM      4  C   UNL     1      10.772  23.716  18.154  0.00  0.00    +0.077 A 
ATOM      5  C   UNL     1       9.375  23.393  18.197  0.00  0.00    +0.048 A 
ATOM      6  C   UNL     1       8.532  24.252  18.939  0.00  0.00    +0.116 A 
ATOM      7  N   UNL     1       9.059  25.349  19.584  0.00  0.00    -0.223 NA
ATOM      8  C   UNL     1      10.411  25.631  19.524  0.00  0.00    +0.220 A 
ATOM      9  N   UNL     1      10.961  26.734  20.159  0.00  0.00    -0.283 N 
ATOM     36  H   UNL     1      11.965  26.903  20.097  0.00  0.00    +0.155 HD
ATOM     37  N   UNL     1      11.237  24.826  18.824  0.00  0.00    -0.214 NA
BRANCH   4   3
ATOM      1  C   UNL     1      14.138  22.456  16.611  0.00  0.00    +0.020 A 
ATOM      2  C   UNL     1      13.197  23.272  17.343  0.00  0.00    +0.013 A 
ATOM      3  C   UNL     1      11.788  22.907  17.410  0.00  0.00    +0.019 A 
ATOM     38  C   UNL     1      11.360  21.699  16.720  0.00  0.00    +0.120 A 
ATOM     39  N   UNL     1      12.288  20.934  16.021  0.00  0.00    -0.263 NA
ATOM     40  C   UNL     1      13.646  21.276  15.949  0.00  0.00    +0.111 A 
ENDBRANCH   4   3
ENDBRANCH  10   9
BRANCH  12  13
ATOM     13  N   UNL     1       8.117  30.814  20.282  0.00  0.00    -0.281 N 
ATOM     14  C   UNL     1       7.149  31.657  20.804  0.00  0.00    +0.248 C 
ATOM     30  O   UNL     1       6.509  31.429  21.819  0.00  0.00    -0.270 OA
ATOM     31  H   UNL     1       8.432  31.026  19.335  0.00  0.00    +0.155 HD
BRANCH  14  15
ATOM     15  C   UNL     1       6.836  32.929  20.085  0.00  0.00    +0.037 A 
ATOM     16  C   UNL     1       7.879  33.683  19.384  0.00  0.00    +0.013 A 
ATOM     17  C   UNL     1       7.554  34.916  18.713  0.00  0.00    +0.005 A 
ATOM     18  C   UNL     1       6.177  35.404  18.739  0.00  0.00    -0.033 A 
ATOM     28  C   UNL     1       5.161  34.634  19.437  0.00  0.00    +0.005 A 
ATOM     29  C   UNL     1       5.476  33.425  20.097  0.00  0.00    +0.013 A 
BRANCH  18  19
ATOM     19  C   UNL     1       5.743  36.721  18.068  0.00  0.00    +0.119 C 
BRANCH  19  20
ATOM     20  N   UNL     1       5.257  37.815  18.961  0.00  0.00    -0.302 NA
ATOM     21  C   UNL     1       5.677  39.198  18.455  0.00  0.00    +0.066 C 
ATOM     22  C   UNL     1       5.142  40.332  19.388  0.00  0.00    -0.064 C 
ATOM     23  N   UNL     1       5.650  40.100  20.812  0.00  0.00    +0.379 N 
ATOM     24  C   UNL     1       5.196  41.196  21.680  0.00  0.00    -0.096 C 
ATOM     25  H   UNL     1       6.764  40.130  20.782  0.00  0.00    -0.082 HD
ATOM     26  C   UNL     1       5.239  38.725  21.322  0.00  0.00    -0.064 C 
ATOM     27  C   UNL     1       5.751  37.607  20.372  0.00  0.00    +0.066 C 
ENDBRANCH  19  20
ENDBRANCH  18  19
ENDBRANCH  14  15
ENDBRANCH  12  13
TORSDOF 6
ENDMDL
MODEL 5
REMARK VINA RESULT:     -10.1      2.169     14.059
REMARK  Name = C:\Users\Docking\Desktop\test protocol\1iep_ligandH.pdb
REMARK  8 active torsions:
REMARK  status: ('A' for Active; 'I' for Inactive)
REMARK    1  A    between atoms: _5  and  _11
REMARK    2  A    between atoms: _19  and  _21
REMARK    3  A    between atoms: _22  and  _66
REMARK    4  A    between atoms: _27  and  _30
REMARK    5  A    between atoms: _32  and  _33
REMARK    6  A    between atoms: _38  and  _43
REMARK    7  A    between atoms: _43  and  _46
REMARK    8  A    between atoms: _53  and  _55
REMARK                            x       y       z     vdW  Elec       q    Type
REMARK                         _______ _______ _______ _____ _____    ______ ____
ROOT
ATOM     10  C   UNL     1      18.515  22.985  14.337  0.00  0.00    +0.038 A 
ATOM     11  C   UNL     1      17.219  22.987  14.912  0.00  0.00    +0.047 A 
ATOM     12  C   UNL     1      16.846  23.963  15.924  0.00  0.00    +0.035 A 
ATOM     32  C   UNL     1      17.818  24.924  16.327  0.00  0.00    +0.024 A 
ATOM     33  C   UNL     1      19.141  24.936  15.754  0.00  0.00    +0.007 A 
ATOM     34  C   UNL     1      19.516  23.974  14.757  0.00  0.00    -0.029 A 
ATOM     35  C   UNL     1      20.950  24.030  14.182  0.00  0.00    +0.045 C 
ENDROOT
BRANCH  10   9
ATOM      4  C   UNL     1      18.279  18.527  12.576  0.00  0.00    +0.077 A 
ATOM      5  C   UNL     1      17.506  18.063  13.692  0.00  0.00    +0.048 A 
ATOM      6  C   UNL     1      17.197  19.002  14.702  0.00  0.00    +0.116 A 
ATOM      7  N   UNL     1      17.633  20.305  14.592  0.00  0.00    -0.223 NA
ATOM      8  C   UNL     1      18.378  20.719  13.503  0.00  0.00    +0.220 A 
ATOM      9  N   UNL     1      18.820  22.026  13.369  0.00  0.00    -0.283 N 
ATOM     36  H   UNL     1      19.373  22.290  12.554  0.00  0.00    +0.155 HD
ATOM     37  N   UNL     1      18.687  19.841  12.526  0.00  0.00    -0.214 NA
BRANCH   4   3
ATOM      1  C   UNL     1      19.793  17.270   9.195  0.00  0.00    +0.020 A 
ATOM      2  C   UNL     1      19.427  18.154  10.278  0.00  0.00    +0.013 A 
ATOM      3  C   UNL     1      18.683  17.655  11.427  0.00  0.00    +0.019 A 
ATOM     38  C   UNL     1      18.322  16.246  11.451  0.00  0.00    +0.120 A 
ATOM     39  N   UNL     1      18.687  15.419  10.393  0.00  0.00    -0.263 NA
ATOM     40  C   UNL     1      19.402  15.888   9.281  0.00  0.00    +0.111 A 
ENDBRANCH   4   3
ENDBRANCH  10   9
BRANCH  12  13
ATOM     13  N   UNL     1      15.547  24.009  16.549  0.00  0.00    -0.281 N 
ATOM     14  C   UNL     1      15.058  23.196  17.558  0.00  0.00    +0.248 C 
ATOM     30  O   UNL     1      15.592  22.162  17.932  0.00  0.00    -0.270 OA
ATOM     31  H   UNL     1      14.910  24.728  16.205  0.00  0.00    +0.155 HD
BRANCH  14  15
ATOM     15  C   UNL     1      13.785  23.579  18.241  0.00  0.00    +0.037 A 
ATOM     16  C   UNL     1      13.774  24.006  19.643  0.00  0.00    +0.013 A 
ATOM     17  C   UNL     1      12.530  24.354  20.283  0.00  0.00    +0.005 A 
ATOM     18  C   UNL     1      11.286  24.277  19.520  0.00  0.00    -0.033 A 
ATOM     28  C   UNL     1      11.327  23.855  18.130  0.00  0.00    +0.005 A 
ATOM     29  C   UNL     1      12.544  23.512  17.500  0.00  0.00    +0.013 A 
BRANCH  18  19
ATOM     19  C   UNL     1       9.911  24.609  20.128  0.00  0.00    +0.119 C 
BRANCH  19  20
ATOM     20  N   UNL     1       9.768  25.925  20.820  0.00  0.00    -0.302 NA
ATOM     21  C   UNL     1       8.419  26.056  21.532  0.00  0.00    +0.066 C 
ATOM     22  C   UNL     1       8.296  27.429  22.270  0.00  0.00    -0.064 C 
ATOM     23  N   UNL     1       8.490  28.565  21.263  0.00  0.00    +0.379 N 
ATOM     24  C   UNL     1       8.318  29.857  21.942  0.00  0.00    -0.096 C 
ATOM     25  H   UNL     1       7.687  28.476  20.495  0.00  0.00    -0.082 HD
ATOM     26  C   UNL     1       9.828  28.440  20.548  0.00  0.00    -0.064 C 
ATOM     27  C   UNL     1       9.952  27.060  19.843  0.00  0.00    +0.066 C 
ENDBRANCH  19  20
ENDBRANCH  18  19
ENDBRANCH  14  15
ENDBRANCH  12  13
TORSDOF 6
ENDMDL
