MODEL 1
REMARK VINA RESULT:      -9.1      0.000      0.000
REMARK  Name = C:\Users\Docking\Desktop\test protocol\1iep_ligandH.pdb
REMARK  8 active torsions:
REMARK  status: ('A' for Active; 'I' for Inactive)
REMARK    1  A    between atoms: _5  and  _11
REMARK    2  A    between atoms: _19  and  _21
REMARK    3  A    between atoms: _22  and  _66
REMARK    4  A    between atoms: _27  and  _30
REMARK    5  A    between atoms: _32  and  _33
REMARK    6  A    between atoms: _38  and  _43
REMARK    7  A    between atoms: _43  and  _46
REMARK    8  A    between atoms: _53  and  _55
REMARK                            x       y       z     vdW  Elec       q    Type
REMARK                         _______ _______ _______ _____ _____    ______ ____
ROOT
ATOM     10  C   UNL     1      20.352  30.312  21.846  0.00  0.00    +0.038 A 
ATOM     11  C   UNL     1      20.789  30.324  20.496  0.00  0.00    +0.047 A 
ATOM     12  C   UNL     1      20.206  31.235  19.524  0.00  0.00    +0.035 A 
ATOM     32  C   UNL     1      19.181  32.125  19.962  0.00  0.00    +0.024 A 
ATOM     33  C   UNL     1      18.725  32.126  21.330  0.00  0.00    +0.007 A 
ATOM     34  C   UNL     1      19.295  31.227  22.292  0.00  0.00    -0.029 A 
ATOM     35  C   UNL     1      18.762  31.267  23.743  0.00  0.00    +0.045 C 
ENDROOT
BRANCH  10   9
ATOM      4  C   UNL     1      20.314  26.282  24.452  0.00  0.00    +0.077 A 
ATOM      5  C   UNL     1      18.987  25.947  24.023  0.00  0.00    +0.048 A 
ATOM      6  C   UNL     1      18.346  26.842  23.138  0.00  0.00    +0.116 A 
ATOM      7  N   UNL     1      18.994  27.984  22.718  0.00  0.00    -0.223 NA
ATOM      8  C   UNL     1      20.273  28.278  23.152  0.00  0.00    +0.220 A 
ATOM      9  N   UNL     1      20.947  29.416  22.737  0.00  0.00    -0.283 N 
ATOM     36  H   UNL     1      21.887  29.601  23.085  0.00  0.00    +0.155 HD
ATOM     37  N   UNL     1      20.906  27.440  23.999  0.00  0.00    -0.214 NA
BRANCH   4   3
ATOM      1  C   UNL     1      23.304  24.460  26.196  0.00  0.00    +0.020 A 
ATOM      2  C   UNL     1      22.569  25.290  25.270  0.00  0.00    +0.013 A 
ATOM      3  C   UNL     1      21.124  25.435  25.384  0.00  0.00    +0.019 A 
ATOM     38  C   UNL     1      20.446  24.721  26.456  0.00  0.00    +0.120 A 
ATOM     39  N   UNL     1      21.179  23.928  27.333  0.00  0.00    -0.263 NA
ATOM     40  C   UNL     1      22.571  23.779  27.232  0.00  0.00    +0.111 A 
ENDBRANCH   4   3
ENDBRANCH  10   9
BRANCH  12  13
ATOM     13  N   UNL     1      20.603  31.287  18.139  0.00  0.00    -0.281 N 
ATOM     14  C   UNL     1      21.339  32.271  17.500  0.00  0.00    +0.248 C 
ATOM     30  O   UNL     1      21.587  33.368  17.978  0.00  0.00    -0.270 OA
ATOM     31  H   UNL     1      20.305  30.502  17.559  0.00  0.00    +0.155 HD
BRANCH  14  15
ATOM     15  C   UNL     1      21.863  32.003  16.126  0.00  0.00    +0.037 A 
ATOM     16  C   UNL     1      21.296  30.941  15.290  0.00  0.00    +0.013 A 
ATOM     17  C   UNL     1      21.832  30.693  13.975  0.00  0.00    +0.005 A 
ATOM     18  C   UNL     1      22.940  31.510  13.487  0.00  0.00    -0.033 A 
ATOM     28  C   UNL     1      23.480  32.560  14.335  0.00  0.00    +0.005 A 
ATOM     29  C   UNL     1      22.958  32.806  15.625  0.00  0.00    +0.013 A 
BRANCH  18  19
ATOM     19  C   UNL     1      23.588  31.301  12.105  0.00  0.00    +0.119 C 
BRANCH  19  20
ATOM     20  N   UNL     1      23.346  32.351  11.071  0.00  0.00    -0.302 NA
ATOM     21  C   UNL     1      21.881  32.796  11.036  0.00  0.00    +0.066 C 
ATOM     22  C   UNL     1      21.650  33.911   9.964  0.00  0.00    -0.064 C 
ATOM     23  N   UNL     1      22.093  33.396   8.594  0.00  0.00    +0.379 N 
ATOM     24  C   UNL     1      21.823  34.421   7.574  0.00  0.00    -0.096 C 
ATOM     25  H   UNL     1      21.470  32.504   8.350  0.00  0.00    -0.082 HD
ATOM     26  C   UNL     1      23.548  32.949   8.620  0.00  0.00    -0.064 C 
ATOM     27  C   UNL     1      23.772  31.862   9.709  0.00  0.00    +0.066 C 
ENDBRANCH  19  20
ENDBRANCH  18  19
ENDBRANCH  14  15
ENDBRANCH  12  13
TORSDOF 6
ENDMDL
MODEL 2
REMARK VINA RESULT:      -9.0      2.222      3.066
REMARK  Name = C:\Users\Docking\Desktop\test protocol\1iep_ligandH.pdb
REMARK  8 active torsions:
REMARK  status: ('A' for Active; 'I' for Inactive)
REMARK    1  A    between atoms: _5  and  _11
REMARK    2  A    between atoms: _19  and  _21
REMARK    3  A    between atoms: _22  and  _66
REMARK    4  A    between atoms: _27  and  _30
REMARK    5  A    between atoms: _32  and  _33
REMARK    6  A    between atoms: _38  and  _43
REMARK    7  A    between atoms: _43  and  _46
REMARK    8  A    between atoms: _53  and  _55
REMARK                            x       y       z     vdW  Elec       q    Type
REMARK                         _______ _______ _______ _____ _____    ______ ____
ROOT
ATOM     10  C   UNL     1      20.124  29.940  22.530  0.00  0.00    +0.038 A 
ATOM     11  C   UNL     1      20.433  29.841  21.149  0.00  0.00    +0.047 A 
ATOM     12  C   UNL     1      19.775  30.691  20.169  0.00  0.00    +0.035 A 
ATOM     32  C   UNL     1      18.809  31.632  20.631  0.00  0.00    +0.024 A 
ATOM     33  C   UNL     1      18.483  31.745  22.031  0.00  0.00    +0.007 A 
ATOM     34  C   UNL     1      19.127  30.908  23.002  0.00  0.00    -0.029 A 
ATOM     35  C   UNL     1      18.733  31.068  24.489  0.00  0.00    +0.045 C 
ENDROOT
BRANCH  10   9
ATOM      4  C   UNL     1      20.459  25.879  25.067  0.00  0.00    +0.077 A 
ATOM      5  C   UNL     1      19.194  25.403  24.584  0.00  0.00    +0.048 A 
ATOM      6  C   UNL     1      18.486  26.237  23.690  0.00  0.00    +0.116 A 
ATOM      7  N   UNL     1      19.013  27.454  23.314  0.00  0.00    -0.223 NA
ATOM      8  C   UNL     1      20.234  27.883  23.799  0.00  0.00    +0.220 A 
ATOM      9  N   UNL     1      20.787  29.099  23.428  0.00  0.00    -0.283 N 
ATOM     36  H   UNL     1      21.687  29.383  23.814  0.00  0.00    +0.155 HD
ATOM     37  N   UNL     1      20.929  27.106  24.656  0.00  0.00    -0.214 NA
BRANCH   4   3
ATOM      1  C   UNL     1      23.574  24.338  26.863  0.00  0.00    +0.020 A 
ATOM      2  C   UNL     1      22.781  25.096  25.922  0.00  0.00    +0.013 A 
ATOM      3  C   UNL     1      21.327  25.111  26.015  0.00  0.00    +0.019 A 
ATOM     38  C   UNL     1      20.700  24.343  27.081  0.00  0.00    +0.120 A 
ATOM     39  N   UNL     1      21.489  23.622  27.972  0.00  0.00    -0.263 NA
ATOM     40  C   UNL     1      22.889  23.599  27.891  0.00  0.00    +0.111 A 
ENDBRANCH   4   3
ENDBRANCH  10   9
BRANCH  12  13
ATOM     13  N   UNL     1      20.041  30.630  18.753  0.00  0.00    -0.281 N 
ATOM     14  C   UNL     1      20.607  31.607  17.951  0.00  0.00    +0.248 C 
ATOM     30  O   UNL     1      20.777  32.768  18.291  0.00  0.00    -0.270 OA
ATOM     31  H   UNL     1      19.780  29.762  18.286  0.00  0.00    +0.155 HD
BRANCH  14  15
ATOM     15  C   UNL     1      21.034  31.244  16.565  0.00  0.00    +0.037 A 
ATOM     16  C   UNL     1      20.245  30.324  15.742  0.00  0.00    +0.013 A 
ATOM     17  C   UNL     1      20.688  29.978  14.415  0.00  0.00    +0.005 A 
ATOM     18  C   UNL     1      21.929  30.554  13.902  0.00  0.00    -0.033 A 
ATOM     28  C   UNL     1      22.690  31.468  14.737  0.00  0.00    +0.005 A 
ATOM     29  C   UNL     1      22.259  31.809  16.039  0.00  0.00    +0.013 A 
BRANCH  18  19
ATOM     19  C   UNL     1      22.489  30.225  12.506  0.00  0.00    +0.119 C 
BRANCH  19  20
ATOM     20  N   UNL     1      22.999  28.839  12.283  0.00  0.00    -0.302 NA
ATOM     21  C   UNL     1      24.163  28.808  11.288  0.00  0.00    +0.066 C 
ATOM     22  C   UNL     1      24.699  27.353  11.085  0.00  0.00    -0.064 C 
ATOM     23  N   UNL     1      23.557  26.454  10.610  0.00  0.00    +0.379 N 
ATOM     24  C   UNL     1      24.070  25.099  10.362  0.00  0.00    -0.096 C 
ATOM     25  H   UNL     1      23.188  26.859   9.639  0.00  0.00    -0.082 HD
ATOM     26  C   UNL     1      22.394  26.481  11.592  0.00  0.00    -0.064 C 
ATOM     27  C   UNL     1      21.888  27.934  11.810  0.00  0.00    +0.066 C 
ENDBRANCH  19  20
ENDBRANCH  18  19
ENDBRANCH  14  15
ENDBRANCH  12  13
TORSDOF 6
ENDMDL
MODEL 3
REMARK VINA RESULT:      -8.9      5.090     12.360
REMARK  Name = C:\Users\Docking\Desktop\test protocol\1iep_ligandH.pdb
REMARK  8 active torsions:
REMARK  status: ('A' for Active; 'I' for Inactive)
REMARK    1  A    between atoms: _5  and  _11
REMARK    2  A    between atoms: _19  and  _21
REMARK    3  A    between atoms: _22  and  _66
REMARK    4  A    between atoms: _27  and  _30
REMARK    5  A    between atoms: _32  and  _33
REMARK    6  A    between atoms: _38  and  _43
REMARK    7  A    between atoms: _43  and  _46
REMARK    8  A    between atoms: _53  and  _55
REMARK                            x       y       z     vdW  Elec       q    Type
REMARK                         _______ _______ _______ _____ _____    ______ ____
ROOT
ATOM     10  C   UNL     1      21.599  32.296  15.666  0.00  0.00    +0.038 A 
ATOM     11  C   UNL     1      21.347  32.109  17.049  0.00  0.00    +0.047 A 
ATOM     12  C   UNL     1      20.624  33.105  17.824  0.00  0.00    +0.035 A 
ATOM     32  C   UNL     1      20.168  34.279  17.158  0.00  0.00    +0.024 A 
ATOM     33  C   UNL     1      20.416  34.486  15.752  0.00  0.00    +0.007 A 
ATOM     34  C   UNL     1      21.131  33.508  14.983  0.00  0.00    -0.029 A 
ATOM     35  C   UNL     1      21.373  33.786  13.481  0.00  0.00    +0.045 C 
ENDROOT
BRANCH  10   9
ATOM      4  C   UNL     1      21.760  28.348  12.942  0.00  0.00    +0.077 A 
ATOM      5  C   UNL     1      20.330  28.230  12.925  0.00  0.00    +0.048 A 
ATOM      6  C   UNL     1      19.590  29.201  13.635  0.00  0.00    +0.116 A 
ATOM      7  N   UNL     1      20.242  30.211  14.309  0.00  0.00    -0.223 NA
ATOM      8  C   UNL     1      21.622  30.295  14.307  0.00  0.00    +0.220 A 
ATOM      9  N   UNL     1      22.298  31.307  14.971  0.00  0.00    -0.283 N 
ATOM     36  H   UNL     1      23.317  31.330  14.951  0.00  0.00    +0.155 HD
ATOM     37  N   UNL     1      22.351  29.379  13.636  0.00  0.00    -0.214 NA
BRANCH   4   3
ATOM      1  C   UNL     1      24.965  26.651  11.477  0.00  0.00    +0.020 A 
ATOM      2  C   UNL     1      24.122  27.596  12.172  0.00  0.00    +0.013 A 
ATOM      3  C   UNL     1      22.679  27.400  12.235  0.00  0.00    +0.019 A 
ATOM     38  C   UNL     1      22.117  26.228  11.581  0.00  0.00    +0.120 A 
ATOM     39  N   UNL     1      22.953  25.336  10.918  0.00  0.00    -0.263 NA
ATOM     40  C   UNL     1      24.343  25.515  10.849  0.00  0.00    +0.111 A 
ENDBRANCH   4   3
ENDBRANCH  10   9
BRANCH  12  13
ATOM     13  N   UNL     1      20.346  32.973  19.233  0.00  0.00    -0.281 N 
ATOM     14  C   UNL     1      20.642  33.869  20.247  0.00  0.00    +0.248 C 
ATOM     30  O   UNL     1      21.385  34.831  20.124  0.00  0.00    -0.270 OA
ATOM     31  H   UNL     1      19.874  32.114  19.518  0.00  0.00    +0.155 HD
BRANCH  14  15
ATOM     15  C   UNL     1      20.035  33.659  21.597  0.00  0.00    +0.037 A 
ATOM     16  C   UNL     1      20.435  32.531  22.442  0.00  0.00    +0.013 A 
ATOM     17  C   UNL     1      19.821  32.342  23.733  0.00  0.00    +0.005 A 
ATOM     18  C   UNL     1      18.802  33.284  24.186  0.00  0.00    -0.033 A 
ATOM     28  C   UNL     1      18.428  34.397  23.329  0.00  0.00    +0.005 A 
ATOM     29  C   UNL     1      19.026  34.586  22.063  0.00  0.00    +0.013 A 
BRANCH  18  19
ATOM     19  C   UNL     1      18.079  33.148  25.539  0.00  0.00    +0.119 C 
BRANCH  19  20
ATOM     20  N   UNL     1      17.277  34.317  26.008  0.00  0.00    -0.302 NA
ATOM     21  C   UNL     1      18.082  35.231  26.936  0.00  0.00    +0.066 C 
ATOM     22  C   UNL     1      17.235  36.462  27.398  0.00  0.00    -0.064 C 
ATOM     23  N   UNL     1      15.963  35.970  28.091  0.00  0.00    +0.379 N 
ATOM     24  C   UNL     1      15.192  37.124  28.578  0.00  0.00    -0.096 C 
ATOM     25  H   UNL     1      16.272  35.370  28.979  0.00  0.00    -0.082 HD
ATOM     26  C   UNL     1      15.158  35.058  27.176  0.00  0.00    -0.064 C 
ATOM     27  C   UNL     1      16.018  33.855  26.699  0.00  0.00    +0.066 C 
ENDBRANCH  19  20
ENDBRANCH  18  19
ENDBRANCH  14  15
ENDBRANCH  12  13
TORSDOF 6
ENDMDL
MODEL 4
REMARK VINA RESULT:      -8.8      4.359     12.345
REMARK  Name = C:\Users\Docking\Desktop\test protocol\1iep_ligandH.pdb
REMARK  8 active torsions:
REMARK  status: ('A' for Active; 'I' for Inactive)
REMARK    1  A    between atoms: _5  and  _11
REMARK    2  A    between atoms: _19  and  _21
REMARK    3  A    between atoms: _22  and  _66
REMARK    4  A    between atoms: _27  and  _30
REMARK    5  A    between atoms: _32  and  _33
REMARK    6  A    between atoms: _38  and  _43
REMARK    7  A    between atoms: _43  and  _46
REMARK    8  A    between atoms: _53  and  _55
REMARK                            x       y       z     vdW  Elec       q    Type
REMARK                         _______ _______ _______ _____ _____    ______ ____
ROOT
ATOM     10  C   UNL     1      22.345  30.283  12.884  0.00  0.00    +0.038 A 
ATOM     11  C   UNL     1      21.941  30.397  14.239  0.00  0.00    +0.047 A 
ATOM     12  C   UNL     1      22.434  31.474  15.083  0.00  0.00    +0.035 A 
ATOM     32  C   UNL     1      23.336  32.420  14.513  0.00  0.00    +0.024 A 
ATOM     33  C   UNL     1      23.757  32.319  13.138  0.00  0.00    +0.007 A 
ATOM     34  C   UNL     1      23.276  31.257  12.301  0.00  0.00    -0.029 A 
ATOM     35  C   UNL     1      23.766  31.194  10.836  0.00  0.00    +0.045 C 
ENDROOT
BRANCH  10   9
ATOM      4  C   UNL     1      22.763  25.967  10.826  0.00  0.00    +0.077 A 
ATOM      5  C   UNL     1      24.111  25.810  11.292  0.00  0.00    +0.048 A 
ATOM      6  C   UNL     1      24.662  26.866  12.052  0.00  0.00    +0.116 A 
ATOM      7  N   UNL     1      23.912  27.991  12.320  0.00  0.00    -0.223 NA
ATOM      8  C   UNL     1      22.615  28.111  11.854  0.00  0.00    +0.220 A 
ATOM      9  N   UNL     1      21.840  29.229  12.119  0.00  0.00    -0.283 N 
ATOM     36  H   UNL     1      20.890  29.282  11.751  0.00  0.00    +0.155 HD
ATOM     37  N   UNL     1      22.067  27.116  11.125  0.00  0.00    -0.214 NA
BRANCH   4   3
ATOM      1  C   UNL     1      21.804  23.446   7.993  0.00  0.00    +0.020 A 
ATOM      2  C   UNL     1      22.540  24.442   8.738  0.00  0.00    +0.013 A 
ATOM      3  C   UNL     1      22.041  24.937  10.015  0.00  0.00    +0.019 A 
ATOM     38  C   UNL     1      20.785  24.399  10.515  0.00  0.00    +0.120 A 
ATOM     39  N   UNL     1      20.097  23.442   9.775  0.00  0.00    -0.263 NA
ATOM     40  C   UNL     1      20.567  22.959   8.544  0.00  0.00    +0.111 A 
ENDBRANCH   4   3
ENDBRANCH  10   9
BRANCH  12  13
ATOM     13  N   UNL     1      22.066  31.636  16.467  0.00  0.00    -0.281 N 
ATOM     14  C   UNL     1      21.014  32.371  16.989  0.00  0.00    +0.248 C 
ATOM     30  O   UNL     1      20.354  33.179  16.353  0.00  0.00    -0.270 OA
ATOM     31  H   UNL     1      22.652  31.149  17.146  0.00  0.00    +0.155 HD
BRANCH  14  15
ATOM     15  C   UNL     1      20.652  32.194  18.428  0.00  0.00    +0.037 A 
ATOM     16  C   UNL     1      20.444  33.348  19.307  0.00  0.00    +0.013 A 
ATOM     17  C   UNL     1      20.113  33.149  20.695  0.00  0.00    +0.005 A 
ATOM     18  C   UNL     1      19.986  31.788  21.214  0.00  0.00    -0.033 A 
ATOM     28  C   UNL     1      20.193  30.662  20.319  0.00  0.00    +0.005 A 
ATOM     29  C   UNL     1      20.519  30.853  18.957  0.00  0.00    +0.013 A 
BRANCH  18  19
ATOM     19  C   UNL     1      19.657  31.482  22.687  0.00  0.00    +0.119 C 
BRANCH  19  20
ATOM     20  N   UNL     1      18.871  32.506  23.439  0.00  0.00    -0.302 NA
ATOM     21  C   UNL     1      19.139  32.442  24.945  0.00  0.00    +0.066 C 
ATOM     22  C   UNL     1      18.326  33.534  25.714  0.00  0.00    -0.064 C 
ATOM     23  N   UNL     1      16.836  33.358  25.421  0.00  0.00    +0.379 N 
ATOM     24  C   UNL     1      16.064  34.347  26.188  0.00  0.00    -0.096 C 
ATOM     25  H   UNL     1      16.538  32.345  25.779  0.00  0.00    -0.082 HD
ATOM     26  C   UNL     1      16.561  33.417  23.925  0.00  0.00    -0.064 C 
ATOM     27  C   UNL     1      17.396  32.347  23.167  0.00  0.00    +0.066 C 
ENDBRANCH  19  20
ENDBRANCH  18  19
ENDBRANCH  14  15
ENDBRANCH  12  13
TORSDOF 6
ENDMDL
MODEL 5
REMARK VINA RESULT:      -8.8      4.659     12.218
REMARK  Name = C:\Users\Docking\Desktop\test protocol\1iep_ligandH.pdb
REMARK  8 active torsions:
REMARK  status: ('A' for Active; 'I' for Inactive)
REMARK    1  A    between atoms: _5  and  _11
REMARK    2  A    between atoms: _19  and  _21
REMARK    3  A    between atoms: _22  and  _66
REMARK    4  A    between atoms: _27  and  _30
REMARK    5  A    between atoms: _32  and  _33
REMARK    6  A    between atoms: _38  and  _43
REMARK    7  A    between atoms: _43  and  _46
REMARK    8  A    between atoms: _53  and  _55
REMARK                            x       y       z     vdW  Elec       q    Type
REMARK                         _______ _______ _______ _____ _____    ______ ____
ROOT
ATOM     10  C   UNL     1      21.852  32.199  15.551  0.00  0.00    +0.038 A 
ATOM     11  C   UNL     1      21.557  32.049  16.930  0.00  0.00    +0.047 A 
ATOM     12  C   UNL     1      20.863  33.091  17.670  0.00  0.00    +0.035 A 
ATOM     32  C   UNL     1      20.482  34.274  16.972  0.00  0.00    +0.024 A 
ATOM     33  C   UNL     1      20.774  34.445  15.571  0.00  0.00    +0.007 A 
ATOM     34  C   UNL     1      21.460  33.421  14.837  0.00  0.00    -0.029 A 
ATOM     35  C   UNL     1      21.753  33.660  13.337  0.00  0.00    +0.045 C 
ENDROOT
BRANCH  10   9
ATOM      4  C   UNL     1      21.909  28.336  12.703  0.00  0.00    +0.077 A 
ATOM      5  C   UNL     1      20.484  28.362  12.541  0.00  0.00    +0.048 A 
ATOM      6  C   UNL     1      19.772  29.381  13.212  0.00  0.00    +0.116 A 
ATOM      7  N   UNL     1      20.446  30.301  13.986  0.00  0.00    -0.223 NA
ATOM      8  C   UNL     1      21.821  30.247  14.123  0.00  0.00    +0.220 A 
ATOM      9  N   UNL     1      22.520  31.166  14.890  0.00  0.00    -0.283 N 
ATOM     36  H   UNL     1      23.533  31.088  14.972  0.00  0.00    +0.155 HD
ATOM     37  N   UNL     1      22.523  29.282  13.493  0.00  0.00    -0.214 NA
BRANCH   4   3
ATOM      1  C   UNL     1      25.058  26.485  11.304  0.00  0.00    +0.020 A 
ATOM      2  C   UNL     1      24.242  27.495  11.939  0.00  0.00    +0.013 A 
ATOM      3  C   UNL     1      22.800  27.323  12.055  0.00  0.00    +0.019 A 
ATOM     38  C   UNL     1      22.209  26.108  11.514  0.00  0.00    +0.120 A 
ATOM     39  N   UNL     1      23.019  25.153  10.907  0.00  0.00    -0.263 NA
ATOM     40  C   UNL     1      24.408  25.309  10.788  0.00  0.00    +0.111 A 
ENDBRANCH   4   3
ENDBRANCH  10   9
BRANCH  12  13
ATOM     13  N   UNL     1      20.544  32.997  19.073  0.00  0.00    -0.281 N 
ATOM     14  C   UNL     1      20.704  33.967  20.049  0.00  0.00    +0.248 C 
ATOM     30  O   UNL     1      21.347  34.996  19.903  0.00  0.00    -0.270 OA
ATOM     31  H   UNL     1      20.154  32.108  19.384  0.00  0.00    +0.155 HD
BRANCH  14  15
ATOM     15  C   UNL     1      20.068  33.758  21.386  0.00  0.00    +0.037 A 
ATOM     16  C   UNL     1      19.025  34.659  21.881  0.00  0.00    +0.013 A 
ATOM     17  C   UNL     1      18.441  34.444  23.181  0.00  0.00    +0.005 A 
ATOM     18  C   UNL     1      18.898  33.320  23.995  0.00  0.00    -0.033 A 
ATOM     28  C   UNL     1      19.931  32.438  23.477  0.00  0.00    +0.005 A 
ATOM     29  C   UNL     1      20.507  32.647  22.203  0.00  0.00    +0.013 A 
BRANCH  18  19
ATOM     19  C   UNL     1      18.346  33.028  25.402  0.00  0.00    +0.119 C 
BRANCH  19  20
ATOM     20  N   UNL     1      17.090  32.225  25.491  0.00  0.00    -0.302 NA
ATOM     21  C   UNL     1      16.050  32.884  26.402  0.00  0.00    +0.066 C 
ATOM     22  C   UNL     1      14.734  32.043  26.465  0.00  0.00    -0.064 C 
ATOM     23  N   UNL     1      15.059  30.628  26.948  0.00  0.00    +0.379 N 
ATOM     24  C   UNL     1      13.816  29.852  27.064  0.00  0.00    -0.096 C 
ATOM     25  H   UNL     1      15.501  30.713  27.968  0.00  0.00    -0.082 HD
ATOM     26  C   UNL     1      16.094  29.967  26.050  0.00  0.00    -0.064 C 
ATOM     27  C   UNL     1      17.387  30.826  25.970  0.00  0.00    +0.066 C 
ENDBRANCH  19  20
ENDBRANCH  18  19
ENDBRANCH  14  15
ENDBRANCH  12  13
TORSDOF 6
ENDMDL
