MODEL 1
REMARK VINA RESULT:      -8.5      0.000      0.000
REMARK  Name = C:\Users\Docking\Desktop\test protocol\1iep_ligandH.pdb
REMARK  8 active torsions:
REMARK  status: ('A' for Active; 'I' for Inactive)
REMARK    1  A    between atoms: _5  and  _11
REMARK    2  A    between atoms: _19  and  _21
REMARK    3  A    between atoms: _22  and  _66
REMARK    4  A    between atoms: _27  and  _30
REMARK    5  A    between atoms: _32  and  _33
REMARK    6  A    between atoms: _38  and  _43
REMARK    7  A    between atoms: _43  and  _46
REMARK    8  A    between atoms: _53  and  _55
REMARK                            x       y       z     vdW  Elec       q    Type
REMARK                         _______ _______ _______ _____ _____    ______ ____
ROOT
ATOM     10  C   UNL     1      20.295  30.382  22.132  0.00  0.00    +0.038 A 
ATOM     11  C   UNL     1      20.520  30.332  20.732  0.00  0.00    +0.047 A 
ATOM     12  C   UNL     1      19.922  31.312  19.838  0.00  0.00    +0.035 A 
ATOM     32  C   UNL     1      19.104  32.332  20.405  0.00  0.00    +0.024 A 
ATOM     33  C   UNL     1      18.864  32.398  21.825  0.00  0.00    +0.007 A 
ATOM     34  C   UNL     1      19.449  31.432  22.711  0.00  0.00    -0.029 A 
ATOM     35  C   UNL     1      19.153  31.548  24.225  0.00  0.00    +0.045 C 
ENDROOT
BRANCH  10   9
ATOM      4  C   UNL     1      20.183  26.264  24.593  0.00  0.00    +0.077 A 
ATOM      5  C   UNL     1      18.808  26.031  24.256  0.00  0.00    +0.048 A 
ATOM      6  C   UNL     1      18.164  26.999  23.453  0.00  0.00    +0.116 A 
ATOM      7  N   UNL     1      18.854  28.112  23.025  0.00  0.00    -0.223 NA
ATOM      8  C   UNL     1      20.179  28.307  23.369  0.00  0.00    +0.220 A 
ATOM      9  N   UNL     1      20.894  29.416  22.943  0.00  0.00    -0.283 N 
ATOM     36  H   UNL     1      21.867  29.527  23.225  0.00  0.00    +0.155 HD
ATOM     37  N   UNL     1      20.816  27.398  24.136  0.00  0.00    -0.214 NA
BRANCH   4   3
ATOM      1  C   UNL     1      21.303  23.756  27.379  0.00  0.00    +0.020 A 
ATOM      2  C   UNL     1      20.470  24.647  26.604  0.00  0.00    +0.013 A 
ATOM      3  C   UNL     1      21.001  25.331  25.431  0.00  0.00    +0.019 A 
ATOM     38  C   UNL     1      22.389  25.089  25.067  0.00  0.00    +0.120 A 
ATOM     39  N   UNL     1      23.167  24.227  25.833  0.00  0.00    -0.263 NA
ATOM     40  C   UNL     1      22.668  23.564  26.964  0.00  0.00    +0.111 A 
ENDBRANCH   4   3
ENDBRANCH  10   9
BRANCH  12  13
ATOM     13  N   UNL     1      20.108  31.306  18.408  0.00  0.00    -0.281 N 
ATOM     14  C   UNL     1      20.811  32.217  17.637  0.00  0.00    +0.248 C 
ATOM     30  O   UNL     1      21.212  33.299  18.039  0.00  0.00    -0.270 OA
ATOM     31  H   UNL     1      19.667  30.537  17.903  0.00  0.00    +0.155 HD
BRANCH  14  15
ATOM     15  C   UNL     1      21.099  31.883  16.209  0.00  0.00    +0.037 A 
ATOM     16  C   UNL     1      20.466  30.736  15.554  0.00  0.00    +0.013 A 
ATOM     17  C   UNL     1      20.774  30.426  14.180  0.00  0.00    +0.005 A 
ATOM     18  C   UNL     1      21.721  31.267  13.452  0.00  0.00    -0.033 A 
ATOM     28  C   UNL     1      22.331  32.402  14.124  0.00  0.00    +0.005 A 
ATOM     29  C   UNL     1      22.032  32.708  15.471  0.00  0.00    +0.013 A 
BRANCH  18  19
ATOM     19  C   UNL     1      22.125  30.999  11.990  0.00  0.00    +0.119 C 
BRANCH  19  20
ATOM     20  N   UNL     1      22.673  29.647  11.669  0.00  0.00    -0.302 NA
ATOM     21  C   UNL     1      23.712  29.190  12.697  0.00  0.00    +0.066 C 
ATOM     22  C   UNL     1      24.258  27.764  12.359  0.00  0.00    -0.064 C 
ATOM     23  N   UNL     1      24.856  27.771  10.951  0.00  0.00    +0.379 N 
ATOM     24  C   UNL     1      25.423  26.448  10.652  0.00  0.00    -0.096 C 
ATOM     25  H   UNL     1      25.693  28.508  10.943  0.00  0.00    -0.082 HD
ATOM     26  C   UNL     1      23.831  28.228   9.923  0.00  0.00    -0.064 C 
ATOM     27  C   UNL     1      23.272  29.632  10.285  0.00  0.00    +0.066 C 
ENDBRANCH  19  20
ENDBRANCH  18  19
ENDBRANCH  14  15
ENDBRANCH  12  13
TORSDOF 6
ENDMDL
MODEL 2
REMARK VINA RESULT:      -8.2      1.906      2.846
REMARK  Name = C:\Users\Docking\Desktop\test protocol\1iep_ligandH.pdb
REMARK  8 active torsions:
REMARK  status: ('A' for Active; 'I' for Inactive)
REMARK    1  A    between atoms: _5  and  _11
REMARK    2  A    between atoms: _19  and  _21
REMARK    3  A    between atoms: _22  and  _66
REMARK    4  A    between atoms: _27  and  _30
REMARK    5  A    between atoms: _32  and  _33
REMARK    6  A    between atoms: _38  and  _43
REMARK    7  A    between atoms: _43  and  _46
REMARK    8  A    between atoms: _53  and  _55
REMARK                            x       y       z     vdW  Elec       q    Type
REMARK                         _______ _______ _______ _____ _____    ______ ____
ROOT
ATOM     10  C   UNL     1      20.267  30.200  22.057  0.00  0.00    +0.038 A 
ATOM     11  C   UNL     1      20.621  30.180  20.684  0.00  0.00    +0.047 A 
ATOM     12  C   UNL     1      20.010  31.099  19.736  0.00  0.00    +0.035 A 
ATOM     32  C   UNL     1      19.044  32.028  20.222  0.00  0.00    +0.024 A 
ATOM     33  C   UNL     1      18.672  32.062  21.614  0.00  0.00    +0.007 A 
ATOM     34  C   UNL     1      19.269  31.156  22.554  0.00  0.00    -0.029 A 
ATOM     35  C   UNL     1      18.828  31.233  24.034  0.00  0.00    +0.045 C 
ENDROOT
BRANCH  10   9
ATOM      4  C   UNL     1      20.293  26.151  24.634  0.00  0.00    +0.077 A 
ATOM      5  C   UNL     1      18.952  25.824  24.243  0.00  0.00    +0.048 A 
ATOM      6  C   UNL     1      18.288  26.727  23.383  0.00  0.00    +0.116 A 
ATOM      7  N   UNL     1      18.927  27.870  22.953  0.00  0.00    -0.223 NA
ATOM      8  C   UNL     1      20.220  28.157  23.351  0.00  0.00    +0.220 A 
ATOM      9  N   UNL     1      20.885  29.296  22.924  0.00  0.00    -0.283 N 
ATOM     36  H   UNL     1      21.836  29.475  23.246  0.00  0.00    +0.155 HD
ATOM     37  N   UNL     1      20.875  27.310  24.173  0.00  0.00    -0.214 NA
BRANCH   4   3
ATOM      1  C   UNL     1      23.326  24.308  26.277  0.00  0.00    +0.020 A 
ATOM      2  C   UNL     1      22.568  25.147  25.379  0.00  0.00    +0.013 A 
ATOM      3  C   UNL     1      21.126  25.295  25.536  0.00  0.00    +0.019 A 
ATOM     38  C   UNL     1      20.478  24.574  26.622  0.00  0.00    +0.120 A 
ATOM     39  N   UNL     1      21.234  23.772  27.470  0.00  0.00    -0.263 NA
ATOM     40  C   UNL     1      22.622  23.621  27.328  0.00  0.00    +0.111 A 
ENDBRANCH   4   3
ENDBRANCH  10   9
BRANCH  12  13
ATOM     13  N   UNL     1      20.324  31.119  18.329  0.00  0.00    -0.281 N 
ATOM     14  C   UNL     1      20.620  32.217  17.538  0.00  0.00    +0.248 C 
ATOM     30  O   UNL     1      20.451  33.379  17.877  0.00  0.00    -0.270 OA
ATOM     31  H   UNL     1      20.327  30.214  17.858  0.00  0.00    +0.155 HD
BRANCH  14  15
ATOM     15  C   UNL     1      21.171  31.992  16.167  0.00  0.00    +0.037 A 
ATOM     16  C   UNL     1      20.894  30.756  15.430  0.00  0.00    +0.013 A 
ATOM     17  C   UNL     1      21.452  30.557  14.116  0.00  0.00    +0.005 A 
ATOM     18  C   UNL     1      22.292  31.598  13.529  0.00  0.00    -0.033 A 
ATOM     28  C   UNL     1      22.546  32.817  14.280  0.00  0.00    +0.005 A 
ATOM     29  C   UNL     1      22.002  33.015  15.569  0.00  0.00    +0.013 A 
BRANCH  18  19
ATOM     19  C   UNL     1      22.946  31.462  12.142  0.00  0.00    +0.119 C 
BRANCH  19  20
ATOM     20  N   UNL     1      22.912  32.659  11.249  0.00  0.00    -0.302 NA
ATOM     21  C   UNL     1      21.518  32.897  10.661  0.00  0.00    +0.066 C 
ATOM     22  C   UNL     1      21.495  34.166   9.748  0.00  0.00    -0.064 C 
ATOM     23  N   UNL     1      22.532  34.009   8.635  0.00  0.00    +0.379 N 
ATOM     24  C   UNL     1      22.473  35.174   7.741  0.00  0.00    -0.096 C 
ATOM     25  H   UNL     1      22.254  33.110   8.038  0.00  0.00    -0.082 HD
ATOM     26  C   UNL     1      23.921  33.769   9.211  0.00  0.00    -0.064 C 
ATOM     27  C   UNL     1      23.926  32.523  10.140  0.00  0.00    +0.066 C 
ENDBRANCH  19  20
ENDBRANCH  18  19
ENDBRANCH  14  15
ENDBRANCH  12  13
TORSDOF 6
ENDMDL
MODEL 3
REMARK VINA RESULT:      -8.1      9.559     14.533
REMARK  Name = C:\Users\Docking\Desktop\test protocol\1iep_ligandH.pdb
REMARK  8 active torsions:
REMARK  status: ('A' for Active; 'I' for Inactive)
REMARK    1  A    between atoms: _5  and  _11
REMARK    2  A    between atoms: _19  and  _21
REMARK    3  A    between atoms: _22  and  _66
REMARK    4  A    between atoms: _27  and  _30
REMARK    5  A    between atoms: _32  and  _33
REMARK    6  A    between atoms: _38  and  _43
REMARK    7  A    between atoms: _43  and  _46
REMARK    8  A    between atoms: _53  and  _55
REMARK                            x       y       z     vdW  Elec       q    Type
REMARK                         _______ _______ _______ _____ _____    ______ ____
ROOT
ATOM     10  C   UNL     1      23.593  28.368  10.733  0.00  0.00    +0.038 A 
ATOM     11  C   UNL     1      23.900  27.534   9.627  0.00  0.00    +0.047 A 
ATOM     12  C   UNL     1      24.589  26.266   9.809  0.00  0.00    +0.035 A 
ATOM     32  C   UNL     1      24.948  25.876  11.132  0.00  0.00    +0.024 A 
ATOM     33  C   UNL     1      24.644  26.711  12.268  0.00  0.00    +0.007 A 
ATOM     34  C   UNL     1      23.967  27.964  12.094  0.00  0.00    -0.029 A 
ATOM     35  C   UNL     1      23.673  28.822  13.347  0.00  0.00    +0.045 C 
ENDROOT
BRANCH  10   9
ATOM      4  C   UNL     1      23.557  33.130  10.140  0.00  0.00    +0.077 A 
ATOM      5  C   UNL     1      24.975  33.225  10.336  0.00  0.00    +0.048 A 
ATOM      6  C   UNL     1      25.676  32.025  10.594  0.00  0.00    +0.116 A 
ATOM      7  N   UNL     1      24.999  30.826  10.649  0.00  0.00    -0.223 NA
ATOM      8  C   UNL     1      23.630  30.771  10.458  0.00  0.00    +0.220 A 
ATOM      9  N   UNL     1      22.930  29.575  10.501  0.00  0.00    -0.283 N 
ATOM     36  H   UNL     1      21.920  29.577  10.362  0.00  0.00    +0.155 HD
ATOM     37  N   UNL     1      22.938  31.902  10.211  0.00  0.00    -0.214 NA
BRANCH   4   3
ATOM      1  C   UNL     1      20.478  35.536   9.969  0.00  0.00    +0.020 A 
ATOM      2  C   UNL     1      21.283  34.375  10.269  0.00  0.00    +0.013 A 
ATOM      3  C   UNL     1      22.678  34.309   9.855  0.00  0.00    +0.019 A 
ATOM     38  C   UNL     1      23.234  35.445   9.135  0.00  0.00    +0.120 A 
ATOM     39  N   UNL     1      22.434  36.549   8.859  0.00  0.00    -0.263 NA
ATOM     40  C   UNL     1      21.089  36.623   9.251  0.00  0.00    +0.111 A 
ENDBRANCH   4   3
ENDBRANCH  10   9
BRANCH  12  13
ATOM     13  N   UNL     1      24.934  25.382   8.723  0.00  0.00    -0.281 N 
ATOM     14  C   UNL     1      24.092  24.558   7.996  0.00  0.00    +0.248 C 
ATOM     30  O   UNL     1      22.941  24.295   8.310  0.00  0.00    -0.270 OA
ATOM     31  H   UNL     1      25.919  25.362   8.459  0.00  0.00    +0.155 HD
BRANCH  14  15
ATOM     15  C   UNL     1      24.607  23.923   6.745  0.00  0.00    +0.037 A 
ATOM     16  C   UNL     1      25.337  22.653   6.782  0.00  0.00    +0.013 A 
ATOM     17  C   UNL     1      25.838  22.070   5.563  0.00  0.00    +0.005 A 
ATOM     18  C   UNL     1      25.609  22.758   4.294  0.00  0.00    -0.033 A 
ATOM     28  C   UNL     1      24.877  24.013   4.285  0.00  0.00    +0.005 A 
ATOM     29  C   UNL     1      24.385  24.588   5.478  0.00  0.00    +0.013 A 
BRANCH  18  19
ATOM     19  C   UNL     1      26.126  22.220   2.946  0.00  0.00    +0.119 C 
BRANCH  19  20
ATOM     20  N   UNL     1      27.439  22.740   2.461  0.00  0.00    -0.302 NA
ATOM     21  C   UNL     1      27.292  23.562   1.177  0.00  0.00    +0.066 C 
ATOM     22  C   UNL     1      28.672  24.117   0.695  0.00  0.00    -0.064 C 
ATOM     23  N   UNL     1      29.642  22.953   0.486  0.00  0.00    +0.379 N 
ATOM     24  C   UNL     1      30.922  23.468  -0.023  0.00  0.00    -0.096 C 
ATOM     25  H   UNL     1      29.209  22.289  -0.298  0.00  0.00    -0.082 HD
ATOM     26  C   UNL     1      29.792  22.130   1.757  0.00  0.00    -0.064 C 
ATOM     27  C   UNL     1      28.411  21.607   2.243  0.00  0.00    +0.066 C 
ENDBRANCH  19  20
ENDBRANCH  18  19
ENDBRANCH  14  15
ENDBRANCH  12  13
TORSDOF 6
ENDMDL
MODEL 4
REMARK VINA RESULT:      -8.0      9.863     14.190
REMARK  Name = C:\Users\Docking\Desktop\test protocol\1iep_ligandH.pdb
REMARK  8 active torsions:
REMARK  status: ('A' for Active; 'I' for Inactive)
REMARK    1  A    between atoms: _5  and  _11
REMARK    2  A    between atoms: _19  and  _21
REMARK    3  A    between atoms: _22  and  _66
REMARK    4  A    between atoms: _27  and  _30
REMARK    5  A    between atoms: _32  and  _33
REMARK    6  A    between atoms: _38  and  _43
REMARK    7  A    between atoms: _43  and  _46
REMARK    8  A    between atoms: _53  and  _55
REMARK                            x       y       z     vdW  Elec       q    Type
REMARK                         _______ _______ _______ _____ _____    ______ ____
ROOT
ATOM     10  C   UNL     1      23.578  34.756   8.884  0.00  0.00    +0.038 A 
ATOM     11  C   UNL     1      24.523  35.775   9.168  0.00  0.00    +0.047 A 
ATOM     12  C   UNL     1      24.160  37.181   9.087  0.00  0.00    +0.035 A 
ATOM     32  C   UNL     1      22.825  37.514   8.714  0.00  0.00    +0.024 A 
ATOM     33  C   UNL     1      21.853  36.491   8.420  0.00  0.00    +0.007 A 
ATOM     34  C   UNL     1      22.205  35.103   8.496  0.00  0.00    -0.029 A 
ATOM     35  C   UNL     1      21.123  34.049   8.164  0.00  0.00    +0.045 C 
ENDROOT
BRANCH  10   9
ATOM      4  C   UNL     1      23.865  30.577  11.228  0.00  0.00    +0.077 A 
ATOM      5  C   UNL     1      23.179  31.105  12.372  0.00  0.00    +0.048 A 
ATOM      6  C   UNL     1      22.775  32.458  12.320  0.00  0.00    +0.116 A 
ATOM      7  N   UNL     1      23.043  33.217  11.202  0.00  0.00    -0.223 NA
ATOM      8  C   UNL     1      23.708  32.678  10.116  0.00  0.00    +0.220 A 
ATOM      9  N   UNL     1      23.980  33.422   8.978  0.00  0.00    -0.283 N 
ATOM     36  H   UNL     1      24.480  32.990   8.201  0.00  0.00    +0.155 HD
ATOM     37  N   UNL     1      24.105  31.389  10.142  0.00  0.00    -0.214 NA
BRANCH   4   3
ATOM      1  C   UNL     1      25.605  27.165  12.021  0.00  0.00    +0.020 A 
ATOM      2  C   UNL     1      25.161  28.533  12.164  0.00  0.00    +0.013 A 
ATOM      3  C   UNL     1      24.351  29.165  11.130  0.00  0.00    +0.019 A 
ATOM     38  C   UNL     1      24.004  28.379   9.955  0.00  0.00    +0.120 A 
ATOM     39  N   UNL     1      24.447  27.065   9.844  0.00  0.00    -0.263 NA
ATOM     40  C   UNL     1      25.228  26.447  10.832  0.00  0.00    +0.111 A 
ENDBRANCH   4   3
ENDBRANCH  10   9
BRANCH  12  13
ATOM     13  N   UNL     1      25.079  38.260   9.357  0.00  0.00    -0.281 N 
ATOM     14  C   UNL     1      25.121  39.084  10.469  0.00  0.00    +0.248 C 
ATOM     30  O   UNL     1      24.236  39.157  11.309  0.00  0.00    -0.270 OA
ATOM     31  H   UNL     1      25.783  38.437   8.640  0.00  0.00    +0.155 HD
BRANCH  14  15
ATOM     15  C   UNL     1      26.312  39.965  10.670  0.00  0.00    +0.037 A 
ATOM     16  C   UNL     1      27.335  40.109   9.632  0.00  0.00    +0.013 A 
ATOM     17  C   UNL     1      28.482  40.951   9.858  0.00  0.00    +0.005 A 
ATOM     18  C   UNL     1      28.611  41.658  11.130  0.00  0.00    -0.033 A 
ATOM     28  C   UNL     1      27.579  41.501  12.142  0.00  0.00    +0.005 A 
ATOM     29  C   UNL     1      26.454  40.675  11.923  0.00  0.00    +0.013 A 
BRANCH  18  19
ATOM     19  C   UNL     1      29.812  42.561  11.467  0.00  0.00    +0.119 C 
BRANCH  19  20
ATOM     20  N   UNL     1      31.140  41.899  11.638  0.00  0.00    -0.302 NA
ATOM     21  C   UNL     1      31.013  40.521  12.295  0.00  0.00    +0.066 C 
ATOM     22  C   UNL     1      32.409  39.832  12.446  0.00  0.00    -0.064 C 
ATOM     23  N   UNL     1      33.335  40.737  13.260  0.00  0.00    +0.379 N 
ATOM     24  C   UNL     1      34.629  40.067  13.453  0.00  0.00    -0.096 C 
ATOM     25  H   UNL     1      32.873  40.877  14.265  0.00  0.00    -0.082 HD
ATOM     26  C   UNL     1      33.464  42.110  12.616  0.00  0.00    -0.064 C 
ATOM     27  C   UNL     1      32.069  42.773  12.444  0.00  0.00    +0.066 C 
ENDBRANCH  19  20
ENDBRANCH  18  19
ENDBRANCH  14  15
ENDBRANCH  12  13
TORSDOF 6
ENDMDL
MODEL 5
REMARK VINA RESULT:      -8.0      4.583     13.192
REMARK  Name = C:\Users\Docking\Desktop\test protocol\1iep_ligandH.pdb
REMARK  8 active torsions:
REMARK  status: ('A' for Active; 'I' for Inactive)
REMARK    1  A    between atoms: _5  and  _11
REMARK    2  A    between atoms: _19  and  _21
REMARK    3  A    between atoms: _22  and  _66
REMARK    4  A    between atoms: _27  and  _30
REMARK    5  A    between atoms: _32  and  _33
REMARK    6  A    between atoms: _38  and  _43
REMARK    7  A    between atoms: _43  and  _46
REMARK    8  A    between atoms: _53  and  _55
REMARK                            x       y       z     vdW  Elec       q    Type
REMARK                         _______ _______ _______ _____ _____    ______ ____
ROOT
ATOM     10  C   UNL     1      19.329  28.448  21.043  0.00  0.00    +0.038 A 
ATOM     11  C   UNL     1      20.138  28.017  22.125  0.00  0.00    +0.047 A 
ATOM     12  C   UNL     1      19.630  27.086  23.121  0.00  0.00    +0.035 A 
ATOM     32  C   UNL     1      18.294  26.610  22.982  0.00  0.00    +0.024 A 
ATOM     33  C   UNL     1      17.457  27.038  21.888  0.00  0.00    +0.007 A 
ATOM     34  C   UNL     1      17.951  27.959  20.905  0.00  0.00    -0.029 A 
ATOM     35  C   UNL     1      17.007  28.388  19.758  0.00  0.00    +0.045 C 
ENDROOT
BRANCH  10   9
ATOM      4  C   UNL     1      20.288  32.897  19.522  0.00  0.00    +0.077 A 
ATOM      5  C   UNL     1      19.639  33.489  20.656  0.00  0.00    +0.048 A 
ATOM      6  C   UNL     1      19.064  32.613  21.604  0.00  0.00    +0.116 A 
ATOM      7  N   UNL     1      19.140  31.249  21.422  0.00  0.00    -0.223 NA
ATOM      8  C   UNL     1      19.772  30.712  20.316  0.00  0.00    +0.220 A 
ATOM      9  N   UNL     1      19.867  29.343  20.116  0.00  0.00    -0.283 N 
ATOM     36  H   UNL     1      20.335  28.986  19.284  0.00  0.00    +0.155 HD
ATOM     37  N   UNL     1      20.327  31.527  19.395  0.00  0.00    -0.214 NA
BRANCH   4   3
ATOM      1  C   UNL     1      22.489  33.916  16.452  0.00  0.00    +0.020 A 
ATOM      2  C   UNL     1      21.882  33.106  17.483  0.00  0.00    +0.013 A 
ATOM      3  C   UNL     1      20.946  33.690  18.435  0.00  0.00    +0.019 A 
ATOM     38  C   UNL     1      20.642  35.108  18.315  0.00  0.00    +0.120 A 
ATOM     39  N   UNL     1      21.243  35.864  17.312  0.00  0.00    -0.263 NA
ATOM     40  C   UNL     1      22.147  35.313  16.392  0.00  0.00    +0.111 A 
ENDBRANCH   4   3
ENDBRANCH  10   9
BRANCH  12  13
ATOM     13  N   UNL     1      20.403  26.620  24.246  0.00  0.00    -0.281 N 
ATOM     14  C   UNL     1      20.116  25.566  25.098  0.00  0.00    +0.248 C 
ATOM     30  O   UNL     1      19.037  24.995  25.151  0.00  0.00    -0.270 OA
ATOM     31  H   UNL     1      21.266  27.129  24.437  0.00  0.00    +0.155 HD
BRANCH  14  15
ATOM     15  C   UNL     1      21.177  25.087  26.036  0.00  0.00    +0.037 A 
ATOM     16  C   UNL     1      22.598  25.205  25.700  0.00  0.00    +0.013 A 
ATOM     17  C   UNL     1      23.600  24.719  26.615  0.00  0.00    +0.005 A 
ATOM     18  C   UNL     1      23.183  24.111  27.877  0.00  0.00    -0.033 A 
ATOM     28  C   UNL     1      21.767  24.011  28.187  0.00  0.00    +0.005 A 
ATOM     29  C   UNL     1      20.782  24.485  27.291  0.00  0.00    +0.013 A 
BRANCH  18  19
ATOM     19  C   UNL     1      24.183  23.547  28.904  0.00  0.00    +0.119 C 
BRANCH  19  20
ATOM     20  N   UNL     1      23.935  22.164  29.410  0.00  0.00    -0.302 NA
ATOM     21  C   UNL     1      23.132  22.165  30.714  0.00  0.00    +0.066 C 
ATOM     22  C   UNL     1      22.862  20.710  31.217  0.00  0.00    -0.064 C 
ATOM     23  N   UNL     1      24.195  19.982  31.403  0.00  0.00    +0.379 N 
ATOM     24  C   UNL     1      23.948  18.633  31.932  0.00  0.00    -0.096 C 
ATOM     25  H   UNL     1      24.782  20.543  32.167  0.00  0.00    -0.082 HD
ATOM     26  C   UNL     1      25.002  19.979  30.112  0.00  0.00    -0.064 C 
ATOM     27  C   UNL     1      25.239  21.429  29.605  0.00  0.00    +0.066 C 
ENDBRANCH  19  20
ENDBRANCH  18  19
ENDBRANCH  14  15
ENDBRANCH  12  13
TORSDOF 6
ENDMDL
