MODEL 1
REMARK VINA RESULT:      -8.9      0.000      0.000
REMARK  Name = C:\Users\Docking\Desktop\test protocol\1iep_ligandH.pdb
REMARK  8 active torsions:
REMARK  status: ('A' for Active; 'I' for Inactive)
REMARK    1  A    between atoms: _5  and  _11
REMARK    2  A    between atoms: _19  and  _21
REMARK    3  A    between atoms: _22  and  _66
REMARK    4  A    between atoms: _27  and  _30
REMARK    5  A    between atoms: _32  and  _33
REMARK    6  A    between atoms: _38  and  _43
REMARK    7  A    between atoms: _43  and  _46
REMARK    8  A    between atoms: _53  and  _55
REMARK                            x       y       z     vdW  Elec       q    Type
REMARK                         _______ _______ _______ _____ _____    ______ ____
ROOT
ATOM     10  C   UNL     1      -5.259  -1.138 -22.017  0.00  0.00    +0.038 A 
ATOM     11  C   UNL     1      -4.745  -1.231 -20.699  0.00  0.00    +0.047 A 
ATOM     12  C   UNL     1      -5.346  -2.120 -19.717  0.00  0.00    +0.035 A 
ATOM     32  C   UNL     1      -6.469  -2.903 -20.114  0.00  0.00    +0.024 A 
ATOM     33  C   UNL     1      -7.006  -2.821 -21.450  0.00  0.00    +0.007 A 
ATOM     34  C   UNL     1      -6.418  -1.943 -22.421  0.00  0.00    -0.029 A 
ATOM     35  C   UNL     1      -7.039  -1.891 -23.837  0.00  0.00    +0.045 C 
ENDROOT
BRANCH  10   9
ATOM      4  C   UNL     1      -5.160   2.904 -24.604  0.00  0.00    +0.077 A 
ATOM      5  C   UNL     1      -6.458   3.303 -24.140  0.00  0.00    +0.048 A 
ATOM      6  C   UNL     1      -7.120   2.436 -23.242  0.00  0.00    +0.116 A 
ATOM      7  N   UNL     1      -6.520   1.261 -22.844  0.00  0.00    -0.223 NA
ATOM      8  C   UNL     1      -5.268   0.906 -23.312  0.00  0.00    +0.220 A 
ATOM      9  N   UNL     1      -4.643  -0.268 -22.919  0.00  0.00    -0.283 N 
ATOM     36  H   UNL     1      -3.722  -0.497 -23.292  0.00  0.00    +0.155 HD
ATOM     37  N   UNL     1      -4.616   1.716 -24.171  0.00  0.00    -0.214 NA
BRANCH   4   3
ATOM      1  C   UNL     1      -4.036   5.093 -27.645  0.00  0.00    +0.020 A 
ATOM      2  C   UNL     1      -4.878   4.318 -26.762  0.00  0.00    +0.013 A 
ATOM      3  C   UNL     1      -4.333   3.715 -25.552  0.00  0.00    +0.019 A 
ATOM     38  C   UNL     1      -2.921   3.916 -25.262  0.00  0.00    +0.120 A 
ATOM     39  N   UNL     1      -2.135   4.666 -26.132  0.00  0.00    -0.263 NA
ATOM     40  C   UNL     1      -2.648   5.250 -27.299  0.00  0.00    +0.111 A 
ENDBRANCH   4   3
ENDBRANCH  10   9
BRANCH  12  13
ATOM     13  N   UNL     1      -4.873  -2.250 -18.362  0.00  0.00    -0.281 N 
ATOM     14  C   UNL     1      -4.293  -3.358 -17.764  0.00  0.00    +0.248 C 
ATOM     30  O   UNL     1      -4.289  -4.480 -18.248  0.00  0.00    -0.270 OA
ATOM     31  H   UNL     1      -4.977  -1.425 -17.770  0.00  0.00    +0.155 HD
BRANCH  14  15
ATOM     15  C   UNL     1      -3.636  -3.198 -16.432  0.00  0.00    +0.037 A 
ATOM     16  C   UNL     1      -2.507  -4.044 -16.035  0.00  0.00    +0.013 A 
ATOM     17  C   UNL     1      -1.902  -3.881 -14.737  0.00  0.00    +0.005 A 
ATOM     18  C   UNL     1      -2.426  -2.866 -13.825  0.00  0.00    -0.033 A 
ATOM     28  C   UNL     1      -3.543  -2.037 -14.246  0.00  0.00    +0.005 A 
ATOM     29  C   UNL     1      -4.139  -2.195 -15.518  0.00  0.00    +0.013 A 
BRANCH  18  19
ATOM     19  C   UNL     1      -1.856  -2.637 -12.413  0.00  0.00    +0.119 C 
BRANCH  19  20
ATOM     20  N   UNL     1      -2.085  -3.710 -11.401  0.00  0.00    -0.302 NA
ATOM     21  C   UNL     1      -3.575  -3.972 -11.168  0.00  0.00    +0.066 C 
ATOM     22  C   UNL     1      -3.796  -5.114 -10.123  0.00  0.00    -0.064 C 
ATOM     23  N   UNL     1      -3.100  -4.743  -8.812  0.00  0.00    +0.379 N 
ATOM     24  C   UNL     1      -3.354  -5.788  -7.809  0.00  0.00    -0.096 C 
ATOM     25  H   UNL     1      -3.559  -3.798  -8.440  0.00  0.00    -0.082 HD
ATOM     26  C   UNL     1      -1.618  -4.479  -9.035  0.00  0.00    -0.064 C 
ATOM     27  C   UNL     1      -1.409  -3.363 -10.097  0.00  0.00    +0.066 C 
ENDBRANCH  19  20
ENDBRANCH  18  19
ENDBRANCH  14  15
ENDBRANCH  12  13
TORSDOF 6
ENDMDL
MODEL 2
REMARK VINA RESULT:      -8.5      2.128      3.053
REMARK  Name = C:\Users\Docking\Desktop\test protocol\1iep_ligandH.pdb
REMARK  8 active torsions:
REMARK  status: ('A' for Active; 'I' for Inactive)
REMARK    1  A    between atoms: _5  and  _11
REMARK    2  A    between atoms: _19  and  _21
REMARK    3  A    between atoms: _22  and  _66
REMARK    4  A    between atoms: _27  and  _30
REMARK    5  A    between atoms: _32  and  _33
REMARK    6  A    between atoms: _38  and  _43
REMARK    7  A    between atoms: _43  and  _46
REMARK    8  A    between atoms: _53  and  _55
REMARK                            x       y       z     vdW  Elec       q    Type
REMARK                         _______ _______ _______ _____ _____    ______ ____
ROOT
ATOM     10  C   UNL     1      -5.409  -0.951 -22.268  0.00  0.00    +0.038 A 
ATOM     11  C   UNL     1      -5.039  -0.931 -20.899  0.00  0.00    +0.047 A 
ATOM     12  C   UNL     1      -5.692  -1.797 -19.930  0.00  0.00    +0.035 A 
ATOM     32  C   UNL     1      -6.717  -2.675 -20.391  0.00  0.00    +0.024 A 
ATOM     33  C   UNL     1      -7.106  -2.708 -21.779  0.00  0.00    +0.007 A 
ATOM     34  C   UNL     1      -6.467  -1.853 -22.739  0.00  0.00    -0.029 A 
ATOM     35  C   UNL     1      -6.929  -1.927 -24.213  0.00  0.00    +0.045 C 
ENDROOT
BRANCH  10   9
ATOM      4  C   UNL     1      -5.139   3.086 -24.849  0.00  0.00    +0.077 A 
ATOM      5  C   UNL     1      -6.436   3.520 -24.415  0.00  0.00    +0.048 A 
ATOM      6  C   UNL     1      -7.143   2.672 -23.533  0.00  0.00    +0.116 A 
ATOM      7  N   UNL     1      -6.584   1.481 -23.122  0.00  0.00    -0.223 NA
ATOM      8  C   UNL     1      -5.332   1.091 -23.561  0.00  0.00    +0.220 A 
ATOM      9  N   UNL     1      -4.748  -0.098 -23.155  0.00  0.00    -0.283 N 
ATOM     36  H   UNL     1      -3.826  -0.353 -23.508  0.00  0.00    +0.155 HD
ATOM     37  N   UNL     1      -4.638   1.883 -24.405  0.00  0.00    -0.214 NA
BRANCH   4   3
ATOM      1  C   UNL     1      -2.036   4.788 -26.514  0.00  0.00    +0.020 A 
ATOM      2  C   UNL     1      -2.831   4.016 -25.587  0.00  0.00    +0.013 A 
ATOM      3  C   UNL     1      -4.269   3.874 -25.778  0.00  0.00    +0.019 A 
ATOM     38  C   UNL     1      -4.876   4.529 -26.927  0.00  0.00    +0.120 A 
ATOM     39  N   UNL     1      -4.085   5.267 -27.803  0.00  0.00    -0.263 NA
ATOM     40  C   UNL     1      -2.701   5.412 -27.628  0.00  0.00    +0.111 A 
ENDBRANCH   4   3
ENDBRANCH  10   9
BRANCH  12  13
ATOM     13  N   UNL     1      -5.364  -1.815 -18.526  0.00  0.00    -0.281 N 
ATOM     14  C   UNL     1      -4.731  -2.818 -17.812  0.00  0.00    +0.248 C 
ATOM     30  O   UNL     1      -4.540  -3.950 -18.231  0.00  0.00    -0.270 OA
ATOM     31  H   UNL     1      -5.632  -0.986 -17.994  0.00  0.00    +0.155 HD
BRANCH  14  15
ATOM     15  C   UNL     1      -4.254  -2.527 -16.426  0.00  0.00    +0.037 A 
ATOM     16  C   UNL     1      -4.952  -1.567 -15.568  0.00  0.00    +0.013 A 
ATOM     17  C   UNL     1      -4.460  -1.291 -14.241  0.00  0.00    +0.005 A 
ATOM     18  C   UNL     1      -3.264  -1.980 -13.763  0.00  0.00    -0.033 A 
ATOM     28  C   UNL     1      -2.594  -2.932 -14.633  0.00  0.00    +0.005 A 
ATOM     29  C   UNL     1      -3.072  -3.204 -15.935  0.00  0.00    +0.013 A 
BRANCH  18  19
ATOM     19  C   UNL     1      -2.656  -1.733 -12.369  0.00  0.00    +0.119 C 
BRANCH  19  20
ATOM     20  N   UNL     1      -2.320  -0.323 -12.011  0.00  0.00    -0.302 NA
ATOM     21  C   UNL     1      -0.960  -0.215 -11.315  0.00  0.00    +0.066 C 
ATOM     22  C   UNL     1      -0.614   1.269 -10.967  0.00  0.00    -0.064 C 
ATOM     23  N   UNL     1      -1.720   1.855 -10.087  0.00  0.00    +0.379 N 
ATOM     24  C   UNL     1      -1.370   3.232  -9.711  0.00  0.00    -0.096 C 
ATOM     25  H   UNL     1      -1.765   1.249  -9.153  0.00  0.00    -0.082 HD
ATOM     26  C   UNL     1      -3.076   1.750 -10.771  0.00  0.00    -0.064 C 
ATOM     27  C   UNL     1      -3.397   0.274 -11.139  0.00  0.00    +0.066 C 
ENDBRANCH  19  20
ENDBRANCH  18  19
ENDBRANCH  14  15
ENDBRANCH  12  13
TORSDOF 6
ENDMDL
MODEL 3
REMARK VINA RESULT:      -8.3      4.281     12.763
REMARK  Name = C:\Users\Docking\Desktop\test protocol\1iep_ligandH.pdb
REMARK  8 active torsions:
REMARK  status: ('A' for Active; 'I' for Inactive)
REMARK    1  A    between atoms: _5  and  _11
REMARK    2  A    between atoms: _19  and  _21
REMARK    3  A    between atoms: _22  and  _66
REMARK    4  A    between atoms: _27  and  _30
REMARK    5  A    between atoms: _32  and  _33
REMARK    6  A    between atoms: _38  and  _43
REMARK    7  A    between atoms: _43  and  _46
REMARK    8  A    between atoms: _53  and  _55
REMARK                            x       y       z     vdW  Elec       q    Type
REMARK                         _______ _______ _______ _____ _____    ______ ____
ROOT
ATOM     10  C   UNL     1      -2.614  -1.356 -12.280  0.00  0.00    +0.038 A 
ATOM     11  C   UNL     1      -3.264  -1.273 -13.538  0.00  0.00    +0.047 A 
ATOM     12  C   UNL     1      -2.992  -2.239 -14.591  0.00  0.00    +0.035 A 
ATOM     32  C   UNL     1      -2.054  -3.279 -14.327  0.00  0.00    +0.024 A 
ATOM     33  C   UNL     1      -1.383  -3.378 -13.055  0.00  0.00    +0.007 A 
ATOM     34  C   UNL     1      -1.645  -2.426 -12.013  0.00  0.00    -0.029 A 
ATOM     35  C   UNL     1      -0.892  -2.576 -10.671  0.00  0.00    +0.045 C 
ENDROOT
BRANCH  10   9
ATOM      4  C   UNL     1      -1.828   2.838 -10.081  0.00  0.00    +0.077 A 
ATOM      5  C   UNL     1      -0.710   3.140 -10.928  0.00  0.00    +0.048 A 
ATOM      6  C   UNL     1      -0.366   2.187 -11.912  0.00  0.00    +0.116 A 
ATOM      7  N   UNL     1      -1.092   1.022 -12.032  0.00  0.00    -0.223 NA
ATOM      8  C   UNL     1      -2.164   0.760 -11.198  0.00  0.00    +0.220 A 
ATOM      9  N   UNL     1      -2.913  -0.401 -11.306  0.00  0.00    -0.283 N 
ATOM     36  H   UNL     1      -3.691  -0.560 -10.666  0.00  0.00    +0.155 HD
ATOM     37  N   UNL     1      -2.512   1.654 -10.249  0.00  0.00    -0.214 NA
BRANCH   4   3
ATOM      1  C   UNL     1      -2.122   4.819  -6.721  0.00  0.00    +0.020 A 
ATOM      2  C   UNL     1      -1.608   3.928  -7.736  0.00  0.00    +0.013 A 
ATOM      3  C   UNL     1      -2.317   3.746  -8.996  0.00  0.00    +0.019 A 
ATOM     38  C   UNL     1      -3.553   4.486  -9.200  0.00  0.00    +0.120 A 
ATOM     39  N   UNL     1      -4.025   5.335  -8.204  0.00  0.00    -0.263 NA
ATOM     40  C   UNL     1      -3.352   5.517  -6.986  0.00  0.00    +0.111 A 
ENDBRANCH   4   3
ENDBRANCH  10   9
BRANCH  12  13
ATOM     13  N   UNL     1      -3.615  -2.201 -15.891  0.00  0.00    -0.281 N 
ATOM     14  C   UNL     1      -4.919  -2.534 -16.220  0.00  0.00    +0.248 C 
ATOM     30  O   UNL     1      -5.691  -3.122 -15.477  0.00  0.00    -0.270 OA
ATOM     31  H   UNL     1      -3.024  -1.891 -16.661  0.00  0.00    +0.155 HD
BRANCH  14  15
ATOM     15  C   UNL     1      -5.436  -2.174 -17.575  0.00  0.00    +0.037 A 
ATOM     16  C   UNL     1      -6.342  -1.038 -17.767  0.00  0.00    +0.013 A 
ATOM     17  C   UNL     1      -6.839  -0.723 -19.082  0.00  0.00    +0.005 A 
ATOM     18  C   UNL     1      -6.429  -1.545 -20.219  0.00  0.00    -0.033 A 
ATOM     28  C   UNL     1      -5.525  -2.663 -20.001  0.00  0.00    +0.005 A 
ATOM     29  C   UNL     1      -5.037  -2.975 -18.713  0.00  0.00    +0.013 A 
BRANCH  18  19
ATOM     19  C   UNL     1      -6.927  -1.295 -21.654  0.00  0.00    +0.119 C 
BRANCH  19  20
ATOM     20  N   UNL     1      -6.808   0.095 -22.187  0.00  0.00    -0.302 NA
ATOM     21  C   UNL     1      -7.431   0.232 -23.579  0.00  0.00    +0.066 C 
ATOM     22  C   UNL     1      -7.317   1.698 -24.112  0.00  0.00    -0.064 C 
ATOM     23  N   UNL     1      -5.846   2.117 -24.133  0.00  0.00    +0.379 N 
ATOM     24  C   UNL     1      -5.731   3.473 -24.688  0.00  0.00    -0.096 C 
ATOM     25  H   UNL     1      -5.307   1.423 -24.820  0.00  0.00    -0.082 HD
ATOM     26  C   UNL     1      -5.218   1.981 -22.753  0.00  0.00    -0.064 C 
ATOM     27  C   UNL     1      -5.363   0.528 -22.221  0.00  0.00    +0.066 C 
ENDBRANCH  19  20
ENDBRANCH  18  19
ENDBRANCH  14  15
ENDBRANCH  12  13
TORSDOF 6
ENDMDL
MODEL 4
REMARK VINA RESULT:      -8.1      9.173     15.166
REMARK  Name = C:\Users\Docking\Desktop\test protocol\1iep_ligandH.pdb
REMARK  8 active torsions:
REMARK  status: ('A' for Active; 'I' for Inactive)
REMARK    1  A    between atoms: _5  and  _11
REMARK    2  A    between atoms: _19  and  _21
REMARK    3  A    between atoms: _22  and  _66
REMARK    4  A    between atoms: _27  and  _30
REMARK    5  A    between atoms: _32  and  _33
REMARK    6  A    between atoms: _38  and  _43
REMARK    7  A    between atoms: _43  and  _46
REMARK    8  A    between atoms: _53  and  _55
REMARK                            x       y       z     vdW  Elec       q    Type
REMARK                         _______ _______ _______ _____ _____    ______ ____
ROOT
ATOM     10  C   UNL     1      -1.053  10.554 -31.353  0.00  0.00    +0.038 A 
ATOM     11  C   UNL     1      -1.363   9.562 -30.388  0.00  0.00    +0.047 A 
ATOM     12  C   UNL     1      -2.296   8.486 -30.687  0.00  0.00    +0.035 A 
ATOM     32  C   UNL     1      -2.893   8.450 -31.981  0.00  0.00    +0.024 A 
ATOM     33  C   UNL     1      -2.590   9.451 -32.974  0.00  0.00    +0.007 A 
ATOM     34  C   UNL     1      -1.673  10.516 -32.683  0.00  0.00    -0.029 A 
ATOM     35  C   UNL     1      -1.390  11.565 -33.784  0.00  0.00    +0.045 C 
ENDROOT
BRANCH  10   9
ATOM      4  C   UNL     1       3.405  12.180 -30.633  0.00  0.00    +0.077 A 
ATOM      5  C   UNL     1       3.983  10.903 -30.936  0.00  0.00    +0.048 A 
ATOM      6  C   UNL     1       3.098   9.852 -31.265  0.00  0.00    +0.116 A 
ATOM      7  N   UNL     1       1.738  10.073 -31.287  0.00  0.00    -0.223 NA
ATOM      8  C   UNL     1       1.213  11.317 -30.988  0.00  0.00    +0.220 A 
ATOM      9  N   UNL     1      -0.151  11.564 -31.012  0.00  0.00    -0.283 N 
ATOM     36  H   UNL     1      -0.499  12.493 -30.778  0.00  0.00    +0.155 HD
ATOM     37  N   UNL     1       2.037  12.337 -30.669  0.00  0.00    -0.214 NA
BRANCH   4   3
ATOM      1  C   UNL     1       4.425  15.781 -29.495  0.00  0.00    +0.020 A 
ATOM      2  C   UNL     1       3.603  14.642 -29.835  0.00  0.00    +0.013 A 
ATOM      3  C   UNL     1       4.208  13.390 -30.270  0.00  0.00    +0.019 A 
ATOM     38  C   UNL     1       5.660  13.323 -30.352  0.00  0.00    +0.120 A 
ATOM     39  N   UNL     1       6.425  14.436 -30.020  0.00  0.00    -0.263 NA
ATOM     40  C   UNL     1       5.854  15.647 -29.601  0.00  0.00    +0.111 A 
ENDBRANCH   4   3
ENDBRANCH  10   9
BRANCH  12  13
ATOM     13  N   UNL     1      -2.655   7.456 -29.745  0.00  0.00    -0.281 N 
ATOM     14  C   UNL     1      -1.926   6.332 -29.392  0.00  0.00    +0.248 C 
ATOM     30  O   UNL     1      -0.942   5.930 -29.995  0.00  0.00    -0.270 OA
ATOM     31  H   UNL     1      -3.557   7.568 -29.282  0.00  0.00    +0.155 HD
BRANCH  14  15
ATOM     15  C   UNL     1      -2.360   5.532 -28.207  0.00  0.00    +0.037 A 
ATOM     16  C   UNL     1      -1.856   4.175 -27.979  0.00  0.00    +0.013 A 
ATOM     17  C   UNL     1      -2.304   3.419 -26.837  0.00  0.00    +0.005 A 
ATOM     18  C   UNL     1      -3.261   4.020 -25.911  0.00  0.00    -0.033 A 
ATOM     28  C   UNL     1      -3.741   5.370 -26.158  0.00  0.00    +0.005 A 
ATOM     29  C   UNL     1      -3.305   6.113 -27.277  0.00  0.00    +0.013 A 
BRANCH  18  19
ATOM     19  C   UNL     1      -3.810   3.278 -24.678  0.00  0.00    +0.119 C 
BRANCH  19  20
ATOM     20  N   UNL     1      -5.195   2.727 -24.772  0.00  0.00    -0.302 NA
ATOM     21  C   UNL     1      -6.232   3.674 -24.161  0.00  0.00    +0.066 C 
ATOM     22  C   UNL     1      -7.678   3.092 -24.288  0.00  0.00    -0.064 C 
ATOM     23  N   UNL     1      -7.733   1.720 -23.613  0.00  0.00    +0.379 N 
ATOM     24  C   UNL     1      -9.105   1.196 -23.680  0.00  0.00    -0.096 C 
ATOM     25  H   UNL     1      -7.477   1.862 -22.538  0.00  0.00    -0.082 HD
ATOM     26  C   UNL     1      -6.703   0.773 -24.212  0.00  0.00    -0.064 C 
ATOM     27  C   UNL     1      -5.273   1.374 -24.108  0.00  0.00    +0.066 C 
ENDBRANCH  19  20
ENDBRANCH  18  19
ENDBRANCH  14  15
ENDBRANCH  12  13
TORSDOF 6
ENDMDL
MODEL 5
REMARK VINA RESULT:      -8.1      7.280     12.632
REMARK  Name = C:\Users\Docking\Desktop\test protocol\1iep_ligandH.pdb
REMARK  8 active torsions:
REMARK  status: ('A' for Active; 'I' for Inactive)
REMARK    1  A    between atoms: _5  and  _11
REMARK    2  A    between atoms: _19  and  _21
REMARK    3  A    between atoms: _22  and  _66
REMARK    4  A    between atoms: _27  and  _30
REMARK    5  A    between atoms: _32  and  _33
REMARK    6  A    between atoms: _38  and  _43
REMARK    7  A    between atoms: _43  and  _46
REMARK    8  A    between atoms: _53  and  _55
REMARK                            x       y       z     vdW  Elec       q    Type
REMARK                         _______ _______ _______ _____ _____    ______ ____
ROOT
ATOM     10  C   UNL     1      -4.892  -5.865 -15.397  0.00  0.00    +0.038 A 
ATOM     11  C   UNL     1      -3.991  -6.444 -16.328  0.00  0.00    +0.047 A 
ATOM     12  C   UNL     1      -4.375  -6.653 -17.715  0.00  0.00    +0.035 A 
ATOM     32  C   UNL     1      -5.683  -6.259 -18.121  0.00  0.00    +0.024 A 
ATOM     33  C   UNL     1      -6.611  -5.670 -17.188  0.00  0.00    +0.007 A 
ATOM     34  C   UNL     1      -6.239  -5.464 -15.818  0.00  0.00    -0.029 A 
ATOM     35  C   UNL     1      -7.277  -4.834 -14.860  0.00  0.00    +0.045 C 
ENDROOT
BRANCH  10   9
ATOM      4  C   UNL     1      -2.590  -3.396 -11.985  0.00  0.00    +0.077 A 
ATOM      5  C   UNL     1      -2.167  -2.389 -12.916  0.00  0.00    +0.048 A 
ATOM      6  C   UNL     1      -2.557  -2.548 -14.265  0.00  0.00    +0.116 A 
ATOM      7  N   UNL     1      -3.314  -3.636 -14.643  0.00  0.00    -0.223 NA
ATOM      8  C   UNL     1      -3.703  -4.589 -13.720  0.00  0.00    +0.220 A 
ATOM      9  N   UNL     1      -4.471  -5.687 -14.077  0.00  0.00    -0.283 N 
ATOM     36  H   UNL     1      -4.731  -6.372 -13.368  0.00  0.00    +0.155 HD
ATOM     37  N   UNL     1      -3.342  -4.461 -12.427  0.00  0.00    -0.214 NA
BRANCH   4   3
ATOM      1  C   UNL     1      -1.143  -2.349  -8.505  0.00  0.00    +0.020 A 
ATOM      2  C   UNL     1      -1.431  -2.331  -9.921  0.00  0.00    +0.013 A 
ATOM      3  C   UNL     1      -2.260  -3.367 -10.525  0.00  0.00    +0.019 A 
ATOM     38  C   UNL     1      -2.786  -4.414  -9.662  0.00  0.00    +0.120 A 
ATOM     39  N   UNL     1      -2.491  -4.406  -8.303  0.00  0.00    -0.263 NA
ATOM     40  C   UNL     1      -1.693  -3.416  -7.710  0.00  0.00    +0.111 A 
ENDBRANCH   4   3
ENDBRANCH  10   9
BRANCH  12  13
ATOM     13  N   UNL     1      -3.506  -7.244 -18.703  0.00  0.00    -0.281 N 
ATOM     14  C   UNL     1      -3.203  -6.763 -19.967  0.00  0.00    +0.248 C 
ATOM     30  O   UNL     1      -3.804  -5.855 -20.523  0.00  0.00    -0.270 OA
ATOM     31  H   UNL     1      -3.061  -8.123 -18.440  0.00  0.00    +0.155 HD
BRANCH  14  15
ATOM     15  C   UNL     1      -2.080  -7.390 -20.728  0.00  0.00    +0.037 A 
ATOM     16  C   UNL     1      -1.319  -6.630 -21.722  0.00  0.00    +0.013 A 
ATOM     17  C   UNL     1      -0.251  -7.264 -22.455  0.00  0.00    +0.005 A 
ATOM     18  C   UNL     1       0.062  -8.667 -22.193  0.00  0.00    -0.033 A 
ATOM     28  C   UNL     1      -0.706  -9.396 -21.197  0.00  0.00    +0.005 A 
ATOM     29  C   UNL     1      -1.754  -8.778 -20.478  0.00  0.00    +0.013 A 
BRANCH  18  19
ATOM     19  C   UNL     1       1.171  -9.430 -22.942  0.00  0.00    +0.119 C 
BRANCH  19  20
ATOM     20  N   UNL     1       2.510  -9.509 -22.286  0.00  0.00    -0.302 NA
ATOM     21  C   UNL     1       3.404  -8.323 -22.659  0.00  0.00    +0.066 C 
ATOM     22  C   UNL     1       4.792  -8.411 -21.946  0.00  0.00    -0.064 C 
ATOM     23  N   UNL     1       5.468  -9.734 -22.311  0.00  0.00    +0.379 N 
ATOM     24  C   UNL     1       6.798  -9.793 -21.689  0.00  0.00    -0.096 C 
ATOM     25  H   UNL     1       5.610  -9.747 -23.417  0.00  0.00    -0.082 HD
ATOM     26  C   UNL     1       4.584 -10.918 -21.946  0.00  0.00    -0.064 C 
ATOM     27  C   UNL     1       3.196 -10.807 -22.636  0.00  0.00    +0.066 C 
ENDBRANCH  19  20
ENDBRANCH  18  19
ENDBRANCH  14  15
ENDBRANCH  12  13
TORSDOF 6
ENDMDL
