MODEL 1
REMARK VINA RESULT:      -8.6      0.000      0.000
REMARK  Name = C:\Users\Docking\Desktop\test protocol\1iep_ligandH.pdb
REMARK  8 active torsions:
REMARK  status: ('A' for Active; 'I' for Inactive)
REMARK    1  A    between atoms: _5  and  _11
REMARK    2  A    between atoms: _19  and  _21
REMARK    3  A    between atoms: _22  and  _66
REMARK    4  A    between atoms: _27  and  _30
REMARK    5  A    between atoms: _32  and  _33
REMARK    6  A    between atoms: _38  and  _43
REMARK    7  A    between atoms: _43  and  _46
REMARK    8  A    between atoms: _53  and  _55
REMARK                            x       y       z     vdW  Elec       q    Type
REMARK                         _______ _______ _______ _____ _____    ______ ____
ROOT
ATOM     10  C   UNL     1      16.985  34.073  15.445  0.00  0.00    +0.038 A 
ATOM     11  C   UNL     1      16.888  35.476  15.632  0.00  0.00    +0.047 A 
ATOM     12  C   UNL     1      16.390  36.036  16.878  0.00  0.00    +0.035 A 
ATOM     32  C   UNL     1      16.000  35.139  17.915  0.00  0.00    +0.024 A 
ATOM     33  C   UNL     1      16.091  33.710  17.741  0.00  0.00    +0.007 A 
ATOM     34  C   UNL     1      16.579  33.152  16.513  0.00  0.00    -0.029 A 
ATOM     35  C   UNL     1      16.648  31.612  16.380  0.00  0.00    +0.045 C 
ENDROOT
BRANCH  10   9
ATOM      4  C   UNL     1      16.335  32.319  11.025  0.00  0.00    +0.077 A 
ATOM      5  C   UNL     1      14.907  32.342  11.162  0.00  0.00    +0.048 A 
ATOM      6  C   UNL     1      14.380  32.806  12.388  0.00  0.00    +0.116 A 
ATOM      7  N   UNL     1      15.227  33.214  13.395  0.00  0.00    -0.223 NA
ATOM      8  C   UNL     1      16.600  33.177  13.231  0.00  0.00    +0.220 A 
ATOM      9  N   UNL     1      17.470  33.590  14.228  0.00  0.00    -0.283 N 
ATOM     36  H   UNL     1      18.477  33.540  14.071  0.00  0.00    +0.155 HD
ATOM     37  N   UNL     1      17.128  32.737  12.070  0.00  0.00    -0.214 NA
BRANCH   4   3
ATOM      1  C   UNL     1      18.356  30.158   8.466  0.00  0.00    +0.020 A 
ATOM      2  C   UNL     1      17.686  30.555   9.683  0.00  0.00    +0.013 A 
ATOM      3  C   UNL     1      17.043  31.858   9.789  0.00  0.00    +0.019 A 
ATOM     38  C   UNL     1      17.096  32.744   8.635  0.00  0.00    +0.120 A 
ATOM     39  N   UNL     1      17.749  32.336   7.477  0.00  0.00    -0.263 NA
ATOM     40  C   UNL     1      18.373  31.084   7.364  0.00  0.00    +0.111 A 
ENDBRANCH   4   3
ENDBRANCH  10   9
BRANCH  12  13
ATOM     13  N   UNL     1      16.262  37.452  17.123  0.00  0.00    -0.281 N 
ATOM     14  C   UNL     1      17.262  38.410  17.119  0.00  0.00    +0.248 C 
ATOM     30  O   UNL     1      18.458  38.161  17.116  0.00  0.00    -0.270 OA
ATOM     31  H   UNL     1      15.320  37.788  17.323  0.00  0.00    +0.155 HD
BRANCH  14  15
ATOM     15  C   UNL     1      16.878  39.855  17.137  0.00  0.00    +0.037 A 
ATOM     16  C   UNL     1      17.577  40.837  16.305  0.00  0.00    +0.013 A 
ATOM     17  C   UNL     1      17.198  42.227  16.354  0.00  0.00    +0.005 A 
ATOM     18  C   UNL     1      16.112  42.642  17.238  0.00  0.00    -0.033 A 
ATOM     28  C   UNL     1      15.432  41.646  18.050  0.00  0.00    +0.005 A 
ATOM     29  C   UNL     1      15.802  40.283  18.005  0.00  0.00    +0.013 A 
BRANCH  18  19
ATOM     19  C   UNL     1      15.654  44.107  17.370  0.00  0.00    +0.119 C 
BRANCH  19  20
ATOM     20  N   UNL     1      14.287  44.443  16.874  0.00  0.00    -0.302 NA
ATOM     21  C   UNL     1      14.330  45.300  15.606  0.00  0.00    +0.066 C 
ATOM     22  C   UNL     1      12.891  45.624  15.088  0.00  0.00    -0.064 C 
ATOM     23  N   UNL     1      12.102  46.330  16.192  0.00  0.00    +0.379 N 
ATOM     24  C   UNL     1      10.767  46.688  15.689  0.00  0.00    -0.096 C 
ATOM     25  H   UNL     1      12.636  47.277  16.437  0.00  0.00    -0.082 HD
ATOM     26  C   UNL     1      12.056  45.486  17.458  0.00  0.00    -0.064 C 
ATOM     27  C   UNL     1      13.491  45.145  17.947  0.00  0.00    +0.066 C 
ENDBRANCH  19  20
ENDBRANCH  18  19
ENDBRANCH  14  15
ENDBRANCH  12  13
TORSDOF 6
ENDMDL
MODEL 2
REMARK VINA RESULT:      -8.5     13.425     19.000
REMARK  Name = C:\Users\Docking\Desktop\test protocol\1iep_ligandH.pdb
REMARK  8 active torsions:
REMARK  status: ('A' for Active; 'I' for Inactive)
REMARK    1  A    between atoms: _5  and  _11
REMARK    2  A    between atoms: _19  and  _21
REMARK    3  A    between atoms: _22  and  _66
REMARK    4  A    between atoms: _27  and  _30
REMARK    5  A    between atoms: _32  and  _33
REMARK    6  A    between atoms: _38  and  _43
REMARK    7  A    between atoms: _43  and  _46
REMARK    8  A    between atoms: _53  and  _55
REMARK                            x       y       z     vdW  Elec       q    Type
REMARK                         _______ _______ _______ _____ _____    ______ ____
ROOT
ATOM     10  C   UNL     1      21.070  24.115  20.109  0.00  0.00    +0.038 A 
ATOM     11  C   UNL     1      20.024  23.500  20.842  0.00  0.00    +0.047 A 
ATOM     12  C   UNL     1      20.298  22.741  22.053  0.00  0.00    +0.035 A 
ATOM     32  C   UNL     1      21.650  22.632  22.490  0.00  0.00    +0.024 A 
ATOM     33  C   UNL     1      22.726  23.250  21.756  0.00  0.00    +0.007 A 
ATOM     34  C   UNL     1      22.462  23.997  20.560  0.00  0.00    -0.029 A 
ATOM     35  C   UNL     1      23.656  24.633  19.810  0.00  0.00    +0.045 C 
ENDROOT
BRANCH  10   9
ATOM      4  C   UNL     1      20.010  24.352  15.434  0.00  0.00    +0.077 A 
ATOM      5  C   UNL     1      20.131  22.932  15.274  0.00  0.00    +0.048 A 
ATOM      6  C   UNL     1      20.474  22.177  16.418  0.00  0.00    +0.116 A 
ATOM      7  N   UNL     1      20.679  22.806  17.626  0.00  0.00    -0.223 NA
ATOM      8  C   UNL     1      20.556  24.178  17.746  0.00  0.00    +0.220 A 
ATOM      9  N   UNL     1      20.750  24.831  18.953  0.00  0.00    -0.283 N 
ATOM     36  H   UNL     1      20.657  25.845  18.999  0.00  0.00    +0.155 HD
ATOM     37  N   UNL     1      20.231  24.922  16.668  0.00  0.00    -0.214 NA
BRANCH   4   3
ATOM      1  C   UNL     1      18.976  25.767  11.937  0.00  0.00    +0.020 A 
ATOM      2  C   UNL     1      19.317  24.825  12.977  0.00  0.00    +0.013 A 
ATOM      3  C   UNL     1      19.650  25.285  14.319  0.00  0.00    +0.019 A 
ATOM     38  C   UNL     1      19.629  26.717  14.578  0.00  0.00    +0.120 A 
ATOM     39  N   UNL     1      19.298  27.601  13.556  0.00  0.00    -0.263 NA
ATOM     40  C   UNL     1      18.977  27.170  12.260  0.00  0.00    +0.111 A 
ENDBRANCH   4   3
ENDBRANCH  10   9
BRANCH  12  13
ATOM     13  N   UNL     1      19.277  22.088  22.834  0.00  0.00    -0.281 N 
ATOM     14  C   UNL     1      19.445  21.165  23.854  0.00  0.00    +0.248 C 
ATOM     30  O   UNL     1      20.497  20.598  24.106  0.00  0.00    -0.270 OA
ATOM     31  H   UNL     1      18.314  22.336  22.609  0.00  0.00    +0.155 HD
BRANCH  14  15
ATOM     15  C   UNL     1      18.270  20.811  24.707  0.00  0.00    +0.037 A 
ATOM     16  C   UNL     1      17.987  19.420  25.070  0.00  0.00    +0.013 A 
ATOM     17  C   UNL     1      16.838  19.103  25.881  0.00  0.00    +0.005 A 
ATOM     18  C   UNL     1      15.963  20.182  26.335  0.00  0.00    -0.033 A 
ATOM     28  C   UNL     1      16.271  21.553  25.965  0.00  0.00    +0.005 A 
ATOM     29  C   UNL     1      17.396  21.867  25.170  0.00  0.00    +0.013 A 
BRANCH  18  19
ATOM     19  C   UNL     1      14.703  19.935  27.186  0.00  0.00    +0.119 C 
BRANCH  19  20
ATOM     20  N   UNL     1      14.897  19.318  28.532  0.00  0.00    -0.302 NA
ATOM     21  C   UNL     1      13.681  19.524  29.439  0.00  0.00    +0.066 C 
ATOM     22  C   UNL     1      13.892  18.853  30.836  0.00  0.00    -0.064 C 
ATOM     23  N   UNL     1      15.155  19.420  31.485  0.00  0.00    +0.379 N 
ATOM     24  C   UNL     1      15.325  18.834  32.823  0.00  0.00    -0.096 C 
ATOM     25  H   UNL     1      15.006  20.518  31.613  0.00  0.00    -0.082 HD
ATOM     26  C   UNL     1      16.369  19.221  30.589  0.00  0.00    -0.064 C 
ATOM     27  C   UNL     1      16.137  19.867  29.194  0.00  0.00    +0.066 C 
ENDBRANCH  19  20
ENDBRANCH  18  19
ENDBRANCH  14  15
ENDBRANCH  12  13
TORSDOF 6
ENDMDL
MODEL 3
REMARK VINA RESULT:      -8.4     13.102     18.751
REMARK  Name = C:\Users\Docking\Desktop\test protocol\1iep_ligandH.pdb
REMARK  8 active torsions:
REMARK  status: ('A' for Active; 'I' for Inactive)
REMARK    1  A    between atoms: _5  and  _11
REMARK    2  A    between atoms: _19  and  _21
REMARK    3  A    between atoms: _22  and  _66
REMARK    4  A    between atoms: _27  and  _30
REMARK    5  A    between atoms: _32  and  _33
REMARK    6  A    between atoms: _38  and  _43
REMARK    7  A    between atoms: _43  and  _46
REMARK    8  A    between atoms: _53  and  _55
REMARK                            x       y       z     vdW  Elec       q    Type
REMARK                         _______ _______ _______ _____ _____    ______ ____
ROOT
ATOM     10  C   UNL     1      21.228  24.203  20.099  0.00  0.00    +0.038 A 
ATOM     11  C   UNL     1      20.159  23.778  20.928  0.00  0.00    +0.047 A 
ATOM     12  C   UNL     1      20.406  23.018  22.143  0.00  0.00    +0.035 A 
ATOM     32  C   UNL     1      21.755  22.711  22.486  0.00  0.00    +0.024 A 
ATOM     33  C   UNL     1      22.854  23.135  21.654  0.00  0.00    +0.007 A 
ATOM     34  C   UNL     1      22.616  23.882  20.453  0.00  0.00    -0.029 A 
ATOM     35  C   UNL     1      23.832  24.305  19.596  0.00  0.00    +0.045 C 
ENDROOT
BRANCH  10   9
ATOM      4  C   UNL     1      19.959  24.476  15.478  0.00  0.00    +0.077 A 
ATOM      5  C   UNL     1      19.903  23.048  15.348  0.00  0.00    +0.048 A 
ATOM      6  C   UNL     1      20.215  22.280  16.492  0.00  0.00    +0.116 A 
ATOM      7  N   UNL     1      20.556  22.903  17.673  0.00  0.00    -0.223 NA
ATOM      8  C   UNL     1      20.602  24.282  17.764  0.00  0.00    +0.220 A 
ATOM      9  N   UNL     1      20.934  24.930  18.943  0.00  0.00    -0.283 N 
ATOM     36  H   UNL     1      20.964  25.949  18.967  0.00  0.00    +0.155 HD
ATOM     37  N   UNL     1      20.309  25.038  16.685  0.00  0.00    -0.214 NA
BRANCH   4   3
ATOM      1  C   UNL     1      19.001  25.934  11.977  0.00  0.00    +0.020 A 
ATOM      2  C   UNL     1      19.287  24.977  13.021  0.00  0.00    +0.013 A 
ATOM      3  C   UNL     1      19.653  25.423  14.360  0.00  0.00    +0.019 A 
ATOM     38  C   UNL     1      19.719  26.855  14.611  0.00  0.00    +0.120 A 
ATOM     39  N   UNL     1      19.439  27.752  13.585  0.00  0.00    -0.263 NA
ATOM     40  C   UNL     1      19.088  27.335  12.293  0.00  0.00    +0.111 A 
ENDBRANCH   4   3
ENDBRANCH  10   9
BRANCH  12  13
ATOM     13  N   UNL     1      19.360  22.552  23.020  0.00  0.00    -0.281 N 
ATOM     14  C   UNL     1      18.903  21.255  23.186  0.00  0.00    +0.248 C 
ATOM     30  O   UNL     1      19.181  20.324  22.445  0.00  0.00    -0.270 OA
ATOM     31  H   UNL     1      18.901  23.265  23.587  0.00  0.00    +0.155 HD
BRANCH  14  15
ATOM     15  C   UNL     1      17.994  20.951  24.333  0.00  0.00    +0.037 A 
ATOM     16  C   UNL     1      17.275  22.017  25.036  0.00  0.00    +0.013 A 
ATOM     17  C   UNL     1      16.418  21.698  26.150  0.00  0.00    +0.005 A 
ATOM     18  C   UNL     1      16.273  20.305  26.567  0.00  0.00    -0.033 A 
ATOM     28  C   UNL     1      16.993  19.267  25.848  0.00  0.00    +0.005 A 
ATOM     29  C   UNL     1      17.835  19.576  24.756  0.00  0.00    +0.013 A 
BRANCH  18  19
ATOM     19  C   UNL     1      15.396  19.876  27.758  0.00  0.00    +0.119 C 
BRANCH  19  20
ATOM     20  N   UNL     1      13.993  19.461  27.459  0.00  0.00    -0.302 NA
ATOM     21  C   UNL     1      13.016  19.912  28.549  0.00  0.00    +0.066 C 
ATOM     22  C   UNL     1      11.550  19.490  28.209  0.00  0.00    -0.064 C 
ATOM     23  N   UNL     1      11.489  17.973  28.022  0.00  0.00    +0.379 N 
ATOM     24  C   UNL     1      10.101  17.566  27.760  0.00  0.00    -0.096 C 
ATOM     25  H   UNL     1      11.805  17.501  28.981  0.00  0.00    -0.082 HD
ATOM     26  C   UNL     1      12.459  17.515  26.942  0.00  0.00    -0.064 C 
ATOM     27  C   UNL     1      13.909  17.966  27.274  0.00  0.00    +0.066 C 
ENDBRANCH  19  20
ENDBRANCH  18  19
ENDBRANCH  14  15
ENDBRANCH  12  13
TORSDOF 6
ENDMDL
MODEL 4
REMARK VINA RESULT:      -8.3      2.057      2.621
REMARK  Name = C:\Users\Docking\Desktop\test protocol\1iep_ligandH.pdb
REMARK  8 active torsions:
REMARK  status: ('A' for Active; 'I' for Inactive)
REMARK    1  A    between atoms: _5  and  _11
REMARK    2  A    between atoms: _19  and  _21
REMARK    3  A    between atoms: _22  and  _66
REMARK    4  A    between atoms: _27  and  _30
REMARK    5  A    between atoms: _32  and  _33
REMARK    6  A    between atoms: _38  and  _43
REMARK    7  A    between atoms: _43  and  _46
REMARK    8  A    between atoms: _53  and  _55
REMARK                            x       y       z     vdW  Elec       q    Type
REMARK                         _______ _______ _______ _____ _____    ______ ____
ROOT
ATOM     10  C   UNL     1      16.756  33.981  15.605  0.00  0.00    +0.038 A 
ATOM     11  C   UNL     1      17.006  35.376  15.652  0.00  0.00    +0.047 A 
ATOM     12  C   UNL     1      16.478  36.200  16.728  0.00  0.00    +0.035 A 
ATOM     32  C   UNL     1      15.700  35.569  17.742  0.00  0.00    +0.024 A 
ATOM     33  C   UNL     1      15.435  34.152  17.709  0.00  0.00    +0.007 A 
ATOM     34  C   UNL     1      15.951  33.335  16.649  0.00  0.00    -0.029 A 
ATOM     35  C   UNL     1      15.630  31.823  16.661  0.00  0.00    +0.045 C 
ENDROOT
BRANCH  10   9
ATOM      4  C   UNL     1      16.381  31.841  11.325  0.00  0.00    +0.077 A 
ATOM      5  C   UNL     1      15.001  32.210  11.195  0.00  0.00    +0.048 A 
ATOM      6  C   UNL     1      14.423  32.945  12.255  0.00  0.00    +0.116 A 
ATOM      7  N   UNL     1      15.179  33.280  13.357  0.00  0.00    -0.223 NA
ATOM      8  C   UNL     1      16.507  32.906  13.452  0.00  0.00    +0.220 A 
ATOM      9  N   UNL     1      17.288  33.238  14.548  0.00  0.00    -0.283 N 
ATOM     36  H   UNL     1      18.261  32.938  14.584  0.00  0.00    +0.155 HD
ATOM     37  N   UNL     1      17.081  32.203  12.454  0.00  0.00    -0.214 NA
BRANCH   4   3
ATOM      1  C   UNL     1      18.046  30.751   7.958  0.00  0.00    +0.020 A 
ATOM      2  C   UNL     1      17.310  31.538   8.920  0.00  0.00    +0.013 A 
ATOM      3  C   UNL     1      17.133  31.066  10.288  0.00  0.00    +0.019 A 
ATOM     38  C   UNL     1      17.720  29.785  10.653  0.00  0.00    +0.120 A 
ATOM     39  N   UNL     1      18.422  29.049   9.704  0.00  0.00    -0.263 NA
ATOM     40  C   UNL     1      18.597  29.492   8.384  0.00  0.00    +0.111 A 
ENDBRANCH   4   3
ENDBRANCH  10   9
BRANCH  12  13
ATOM     13  N   UNL     1      16.693  37.623  16.824  0.00  0.00    -0.281 N 
ATOM     14  C   UNL     1      17.888  38.292  17.030  0.00  0.00    +0.248 C 
ATOM     30  O   UNL     1      18.929  37.755  17.378  0.00  0.00    -0.270 OA
ATOM     31  H   UNL     1      15.862  38.208  16.728  0.00  0.00    +0.155 HD
BRANCH  14  15
ATOM     15  C   UNL     1      17.929  39.773  16.835  0.00  0.00    +0.037 A 
ATOM     16  C   UNL     1      16.728  40.595  17.002  0.00  0.00    +0.013 A 
ATOM     17  C   UNL     1      16.792  42.020  16.791  0.00  0.00    +0.005 A 
ATOM     18  C   UNL     1      18.064  42.632  16.412  0.00  0.00    -0.033 A 
ATOM     28  C   UNL     1      19.241  41.793  16.259  0.00  0.00    +0.005 A 
ATOM     29  C   UNL     1      19.182  40.396  16.463  0.00  0.00    +0.013 A 
BRANCH  18  19
ATOM     19  C   UNL     1      18.219  44.141  16.147  0.00  0.00    +0.119 C 
BRANCH  19  20
ATOM     20  N   UNL     1      17.528  44.699  14.946  0.00  0.00    -0.302 NA
ATOM     21  C   UNL     1      18.440  45.626  14.138  0.00  0.00    +0.066 C 
ATOM     22  C   UNL     1      17.708  46.183  12.873  0.00  0.00    -0.064 C 
ATOM     23  N   UNL     1      16.436  46.915  13.305  0.00  0.00    +0.379 N 
ATOM     24  C   UNL     1      15.776  47.490  12.124  0.00  0.00    -0.096 C 
ATOM     25  H   UNL     1      16.741  47.759  13.967  0.00  0.00    -0.082 HD
ATOM     26  C   UNL     1      15.525  46.001  14.112  0.00  0.00    -0.064 C 
ATOM     27  C   UNL     1      16.271  45.430  15.350  0.00  0.00    +0.066 C 
ENDBRANCH  19  20
ENDBRANCH  18  19
ENDBRANCH  14  15
ENDBRANCH  12  13
TORSDOF 6
ENDMDL
MODEL 5
REMARK VINA RESULT:      -8.2      5.570      8.350
REMARK  Name = C:\Users\Docking\Desktop\test protocol\1iep_ligandH.pdb
REMARK  8 active torsions:
REMARK  status: ('A' for Active; 'I' for Inactive)
REMARK    1  A    between atoms: _5  and  _11
REMARK    2  A    between atoms: _19  and  _21
REMARK    3  A    between atoms: _22  and  _66
REMARK    4  A    between atoms: _27  and  _30
REMARK    5  A    between atoms: _32  and  _33
REMARK    6  A    between atoms: _38  and  _43
REMARK    7  A    between atoms: _43  and  _46
REMARK    8  A    between atoms: _53  and  _55
REMARK                            x       y       z     vdW  Elec       q    Type
REMARK                         _______ _______ _______ _____ _____    ______ ____
ROOT
ATOM     10  C   UNL     1      18.209  28.493  14.007  0.00  0.00    +0.038 A 
ATOM     11  C   UNL     1      18.034  29.707  14.719  0.00  0.00    +0.047 A 
ATOM     12  C   UNL     1      17.779  30.958  14.022  0.00  0.00    +0.035 A 
ATOM     32  C   UNL     1      17.706  30.935  12.598  0.00  0.00    +0.024 A 
ATOM     33  C   UNL     1      17.882  29.710  11.859  0.00  0.00    +0.007 A 
ATOM     34  C   UNL     1      18.137  28.473  12.541  0.00  0.00    -0.029 A 
ATOM     35  C   UNL     1      18.325  27.191  11.697  0.00  0.00    +0.045 C 
ENDROOT
BRANCH  10   9
ATOM      4  C   UNL     1      21.142  25.472  16.312  0.00  0.00    +0.077 A 
ATOM      5  C   UNL     1      22.292  26.283  16.035  0.00  0.00    +0.048 A 
ATOM      6  C   UNL     1      22.087  27.466  15.290  0.00  0.00    +0.116 A 
ATOM      7  N   UNL     1      20.822  27.803  14.860  0.00  0.00    -0.223 NA
ATOM      8  C   UNL     1      19.734  26.998  15.143  0.00  0.00    +0.220 A 
ATOM      9  N   UNL     1      18.452  27.321  14.728  0.00  0.00    -0.283 N 
ATOM     36  H   UNL     1      17.677  26.697  14.951  0.00  0.00    +0.155 HD
ATOM     37  N   UNL     1      19.904  25.862  15.852  0.00  0.00    -0.214 NA
BRANCH   4   3
ATOM      1  C   UNL     1      20.652  22.780  19.108  0.00  0.00    +0.020 A 
ATOM      2  C   UNL     1      20.571  24.036  18.398  0.00  0.00    +0.013 A 
ATOM      3  C   UNL     1      21.196  24.194  17.091  0.00  0.00    +0.019 A 
ATOM     38  C   UNL     1      21.900  23.053  16.525  0.00  0.00    +0.120 A 
ATOM     39  N   UNL     1      21.963  21.857  17.233  0.00  0.00    -0.263 NA
ATOM     40  C   UNL     1      21.367  21.693  18.492  0.00  0.00    +0.111 A 
ENDBRANCH   4   3
ENDBRANCH  10   9
BRANCH  12  13
ATOM     13  N   UNL     1      17.601  32.223  14.690  0.00  0.00    -0.281 N 
ATOM     14  C   UNL     1      16.412  32.829  15.064  0.00  0.00    +0.248 C 
ATOM     30  O   UNL     1      15.306  32.471  14.687  0.00  0.00    -0.270 OA
ATOM     31  H   UNL     1      18.454  32.734  14.915  0.00  0.00    +0.155 HD
BRANCH  14  15
ATOM     15  C   UNL     1      16.461  34.011  15.977  0.00  0.00    +0.037 A 
ATOM     16  C   UNL     1      16.103  33.893  17.393  0.00  0.00    +0.013 A 
ATOM     17  C   UNL     1      16.142  35.052  18.248  0.00  0.00    +0.005 A 
ATOM     18  C   UNL     1      16.542  36.341  17.689  0.00  0.00    -0.033 A 
ATOM     28  C   UNL     1      16.896  36.429  16.282  0.00  0.00    +0.005 A 
ATOM     29  C   UNL     1      16.859  35.295  15.441  0.00  0.00    +0.013 A 
BRANCH  18  19
ATOM     19  C   UNL     1      16.591  37.636  18.523  0.00  0.00    +0.119 C 
BRANCH  19  20
ATOM     20  N   UNL     1      16.490  38.929  17.783  0.00  0.00    -0.302 NA
ATOM     21  C   UNL     1      17.863  39.564  17.546  0.00  0.00    +0.066 C 
ATOM     22  C   UNL     1      17.741  40.905  16.752  0.00  0.00    -0.064 C 
ATOM     23  N   UNL     1      16.825  41.864  17.515  0.00  0.00    +0.379 N 
ATOM     24  C   UNL     1      16.754  43.147  16.800  0.00  0.00    -0.096 C 
ATOM     25  H   UNL     1      17.290  42.057  18.509  0.00  0.00    -0.082 HD
ATOM     26  C   UNL     1      15.458  41.240  17.757  0.00  0.00    -0.064 C 
ATOM     27  C   UNL     1      15.593  39.893  18.521  0.00  0.00    +0.066 C 
ENDBRANCH  19  20
ENDBRANCH  18  19
ENDBRANCH  14  15
ENDBRANCH  12  13
TORSDOF 6
ENDMDL
