MODEL 1
REMARK VINA RESULT:      -9.0      0.000      0.000
REMARK  Name = C:\Users\Docking\Desktop\test protocol\1iep_ligandH.pdb
REMARK  8 active torsions:
REMARK  status: ('A' for Active; 'I' for Inactive)
REMARK    1  A    between atoms: _5  and  _11
REMARK    2  A    between atoms: _19  and  _21
REMARK    3  A    between atoms: _22  and  _66
REMARK    4  A    between atoms: _27  and  _30
REMARK    5  A    between atoms: _32  and  _33
REMARK    6  A    between atoms: _38  and  _43
REMARK    7  A    between atoms: _43  and  _46
REMARK    8  A    between atoms: _53  and  _55
REMARK                            x       y       z     vdW  Elec       q    Type
REMARK                         _______ _______ _______ _____ _____    ______ ____
ROOT
ATOM     10  C   UNL     1      21.163  24.433  19.263  0.00  0.00    +0.038 A 
ATOM     11  C   UNL     1      20.220  23.842  20.142  0.00  0.00    +0.047 A 
ATOM     12  C   UNL     1      20.615  22.805  21.083  0.00  0.00    +0.035 A 
ATOM     32  C   UNL     1      21.980  22.396  21.104  0.00  0.00    +0.024 A 
ATOM     33  C   UNL     1      22.952  22.985  20.216  0.00  0.00    +0.007 A 
ATOM     34  C   UNL     1      22.567  24.006  19.284  0.00  0.00    -0.029 A 
ATOM     35  C   UNL     1      23.650  24.598  18.352  0.00  0.00    +0.045 C 
ENDROOT
BRANCH  10   9
ATOM      4  C   UNL     1      19.752  25.909  14.919  0.00  0.00    +0.077 A 
ATOM      5  C   UNL     1      19.919  24.601  14.355  0.00  0.00    +0.048 A 
ATOM      6  C   UNL     1      20.377  23.577  15.215  0.00  0.00    +0.116 A 
ATOM      7  N   UNL     1      20.644  23.853  16.539  0.00  0.00    -0.223 NA
ATOM      8  C   UNL     1      20.474  25.126  17.050  0.00  0.00    +0.220 A 
ATOM      9  N   UNL     1      20.729  25.424  18.380  0.00  0.00    -0.283 N 
ATOM     36  H   UNL     1      20.598  26.377  18.717  0.00  0.00    +0.155 HD
ATOM     37  N   UNL     1      20.039  26.121  16.249  0.00  0.00    -0.214 NA
BRANCH   4   3
ATOM      1  C   UNL     1      17.660  28.234  12.570  0.00  0.00    +0.020 A 
ATOM      2  C   UNL     1      18.080  27.061  13.303  0.00  0.00    +0.013 A 
ATOM      3  C   UNL     1      19.273  27.094  14.140  0.00  0.00    +0.019 A 
ATOM     38  C   UNL     1      20.024  28.338  14.215  0.00  0.00    +0.120 A 
ATOM     39  N   UNL     1      19.596  29.450  13.497  0.00  0.00    -0.263 NA
ATOM     40  C   UNL     1      18.450  29.431  12.687  0.00  0.00    +0.111 A 
ENDBRANCH   4   3
ENDBRANCH  10   9
BRANCH  12  13
ATOM     13  N   UNL     1      19.700  22.163  21.994  0.00  0.00    -0.281 N 
ATOM     14  C   UNL     1      19.896  21.874  23.335  0.00  0.00    +0.248 C 
ATOM     30  O   UNL     1      20.976  21.932  23.904  0.00  0.00    -0.270 OA
ATOM     31  H   UNL     1      18.798  21.889  21.604  0.00  0.00    +0.155 HD
BRANCH  14  15
ATOM     15  C   UNL     1      18.725  21.445  24.159  0.00  0.00    +0.037 A 
ATOM     16  C   UNL     1      17.981  22.403  24.980  0.00  0.00    +0.013 A 
ATOM     17  C   UNL     1      16.866  21.960  25.779  0.00  0.00    +0.005 A 
ATOM     18  C   UNL     1      16.488  20.548  25.760  0.00  0.00    -0.033 A 
ATOM     28  C   UNL     1      17.241  19.620  24.933  0.00  0.00    +0.005 A 
ATOM     29  C   UNL     1      18.334  20.051  24.149  0.00  0.00    +0.013 A 
BRANCH  18  19
ATOM     19  C   UNL     1      15.326  19.983  26.597  0.00  0.00    +0.119 C 
BRANCH  19  20
ATOM     20  N   UNL     1      15.524  19.903  28.075  0.00  0.00    -0.302 NA
ATOM     21  C   UNL     1      16.662  18.951  28.452  0.00  0.00    +0.066 C 
ATOM     22  C   UNL     1      16.870  18.897  30.001  0.00  0.00    -0.064 C 
ATOM     23  N   UNL     1      15.564  18.471  30.673  0.00  0.00    +0.379 N 
ATOM     24  C   UNL     1      15.772  18.363  32.124  0.00  0.00    -0.096 C 
ATOM     25  H   UNL     1      15.302  17.457  30.292  0.00  0.00    -0.082 HD
ATOM     26  C   UNL     1      14.426  19.411  30.302  0.00  0.00    -0.064 C 
ATOM     27  C   UNL     1      14.247  19.480  28.759  0.00  0.00    +0.066 C 
ENDBRANCH  19  20
ENDBRANCH  18  19
ENDBRANCH  14  15
ENDBRANCH  12  13
TORSDOF 6
ENDMDL
MODEL 2
REMARK VINA RESULT:      -8.1      5.844     10.891
REMARK  Name = C:\Users\Docking\Desktop\test protocol\1iep_ligandH.pdb
REMARK  8 active torsions:
REMARK  status: ('A' for Active; 'I' for Inactive)
REMARK    1  A    between atoms: _5  and  _11
REMARK    2  A    between atoms: _19  and  _21
REMARK    3  A    between atoms: _22  and  _66
REMARK    4  A    between atoms: _27  and  _30
REMARK    5  A    between atoms: _32  and  _33
REMARK    6  A    between atoms: _38  and  _43
REMARK    7  A    between atoms: _43  and  _46
REMARK    8  A    between atoms: _53  and  _55
REMARK                            x       y       z     vdW  Elec       q    Type
REMARK                         _______ _______ _______ _____ _____    ______ ____
ROOT
ATOM     10  C   UNL     1      17.663  31.523  13.252  0.00  0.00    +0.038 A 
ATOM     11  C   UNL     1      18.103  30.297  13.813  0.00  0.00    +0.047 A 
ATOM     12  C   UNL     1      17.813  29.027  13.166  0.00  0.00    +0.035 A 
ATOM     32  C   UNL     1      17.075  29.042  11.947  0.00  0.00    +0.024 A 
ATOM     33  C   UNL     1      16.619  30.279  11.363  0.00  0.00    +0.007 A 
ATOM     34  C   UNL     1      16.900  31.535  11.998  0.00  0.00    -0.029 A 
ATOM     35  C   UNL     1      16.381  32.830  11.330  0.00  0.00    +0.045 C 
ENDROOT
BRANCH  10   9
ATOM      4  C   UNL     1      16.895  34.759  16.712  0.00  0.00    +0.077 A 
ATOM      5  C   UNL     1      15.771  34.031  17.226  0.00  0.00    +0.048 A 
ATOM      6  C   UNL     1      15.419  32.832  16.567  0.00  0.00    +0.116 A 
ATOM      7  N   UNL     1      16.144  32.403  15.476  0.00  0.00    -0.223 NA
ATOM      8  C   UNL     1      17.221  33.130  15.005  0.00  0.00    +0.220 A 
ATOM      9  N   UNL     1      17.970  32.713  13.915  0.00  0.00    -0.283 N 
ATOM     36  H   UNL     1      18.753  33.282  13.594  0.00  0.00    +0.155 HD
ATOM     37  N   UNL     1      17.577  34.279  15.616  0.00  0.00    -0.214 NA
BRANCH   4   3
ATOM      1  C   UNL     1      17.293  38.543  17.622  0.00  0.00    +0.020 A 
ATOM      2  C   UNL     1      16.774  37.333  17.026  0.00  0.00    +0.013 A 
ATOM      3  C   UNL     1      17.392  36.042  17.302  0.00  0.00    +0.019 A 
ATOM     38  C   UNL     1      18.541  36.010  18.194  0.00  0.00    +0.120 A 
ATOM     39  N   UNL     1      19.019  37.191  18.752  0.00  0.00    -0.263 NA
ATOM     40  C   UNL     1      18.434  38.439  18.492  0.00  0.00    +0.111 A 
ENDBRANCH   4   3
ENDBRANCH  10   9
BRANCH  12  13
ATOM     13  N   UNL     1      18.226  27.750  13.693  0.00  0.00    -0.281 N 
ATOM     14  C   UNL     1      19.462  27.137  13.569  0.00  0.00    +0.248 C 
ATOM     30  O   UNL     1      20.339  27.500  12.799  0.00  0.00    -0.270 OA
ATOM     31  H   UNL     1      17.522  27.235  14.223  0.00  0.00    +0.155 HD
BRANCH  14  15
ATOM     15  C   UNL     1      19.762  25.938  14.410  0.00  0.00    +0.037 A 
ATOM     16  C   UNL     1      20.025  24.631  13.804  0.00  0.00    +0.013 A 
ATOM     17  C   UNL     1      20.295  23.487  14.639  0.00  0.00    +0.005 A 
ATOM     18  C   UNL     1      20.304  23.647  16.091  0.00  0.00    -0.033 A 
ATOM     28  C   UNL     1      20.045  24.957  16.666  0.00  0.00    +0.005 A 
ATOM     29  C   UNL     1      19.779  26.080  15.850  0.00  0.00    +0.013 A 
BRANCH  18  19
ATOM     19  C   UNL     1      20.561  22.478  17.060  0.00  0.00    +0.119 C 
BRANCH  19  20
ATOM     20  N   UNL     1      21.155  22.810  18.390  0.00  0.00    -0.302 NA
ATOM     21  C   UNL     1      21.976  21.649  18.958  0.00  0.00    +0.066 C 
ATOM     22  C   UNL     1      22.608  22.021  20.338  0.00  0.00    -0.064 C 
ATOM     23  N   UNL     1      21.499  22.427  21.311  0.00  0.00    +0.379 N 
ATOM     24  C   UNL     1      22.085  22.722  22.627  0.00  0.00    -0.096 C 
ATOM     25  H   UNL     1      20.819  21.552  21.431  0.00  0.00    -0.082 HD
ATOM     26  C   UNL     1      20.676  23.579  20.753  0.00  0.00    -0.064 C 
ATOM     27  C   UNL     1      20.077  23.209  19.367  0.00  0.00    +0.066 C 
ENDBRANCH  19  20
ENDBRANCH  18  19
ENDBRANCH  14  15
ENDBRANCH  12  13
TORSDOF 6
ENDMDL
MODEL 3
REMARK VINA RESULT:      -8.1      9.319     10.513
REMARK  Name = C:\Users\Docking\Desktop\test protocol\1iep_ligandH.pdb
REMARK  8 active torsions:
REMARK  status: ('A' for Active; 'I' for Inactive)
REMARK    1  A    between atoms: _5  and  _11
REMARK    2  A    between atoms: _19  and  _21
REMARK    3  A    between atoms: _22  and  _66
REMARK    4  A    between atoms: _27  and  _30
REMARK    5  A    between atoms: _32  and  _33
REMARK    6  A    between atoms: _38  and  _43
REMARK    7  A    between atoms: _43  and  _46
REMARK    8  A    between atoms: _53  and  _55
REMARK                            x       y       z     vdW  Elec       q    Type
REMARK                         _______ _______ _______ _____ _____    ______ ____
ROOT
ATOM     10  C   UNL     1      23.273  15.947  26.996  0.00  0.00    +0.038 A 
ATOM     11  C   UNL     1      22.011  16.587  26.910  0.00  0.00    +0.047 A 
ATOM     12  C   UNL     1      21.266  16.947  28.106  0.00  0.00    +0.035 A 
ATOM     32  C   UNL     1      21.839  16.642  29.375  0.00  0.00    +0.024 A 
ATOM     33  C   UNL     1      23.120  15.990  29.481  0.00  0.00    +0.007 A 
ATOM     34  C   UNL     1      23.858  15.631  28.304  0.00  0.00    -0.029 A 
ATOM     35  C   UNL     1      25.225  14.928  28.478  0.00  0.00    +0.045 C 
ENDROOT
BRANCH  10   9
ATOM      4  C   UNL     1      26.406  16.945  23.499  0.00  0.00    +0.077 A 
ATOM      5  C   UNL     1      26.711  18.230  24.059  0.00  0.00    +0.048 A 
ATOM      6  C   UNL     1      26.035  18.599  25.244  0.00  0.00    +0.116 A 
ATOM      7  N   UNL     1      25.124  17.739  25.817  0.00  0.00    -0.223 NA
ATOM      8  C   UNL     1      24.851  16.508  25.250  0.00  0.00    +0.220 A 
ATOM      9  N   UNL     1      23.944  15.624  25.814  0.00  0.00    -0.283 N 
ATOM     36  H   UNL     1      23.766  14.728  25.362  0.00  0.00    +0.155 HD
ATOM     37  N   UNL     1      25.483  16.132  24.119  0.00  0.00    -0.214 NA
BRANCH   4   3
ATOM      1  C   UNL     1      27.017  15.009  20.156  0.00  0.00    +0.020 A 
ATOM      2  C   UNL     1      26.359  15.495  21.347  0.00  0.00    +0.013 A 
ATOM      3  C   UNL     1      27.041  16.411  22.253  0.00  0.00    +0.019 A 
ATOM     38  C   UNL     1      28.397  16.819  21.922  0.00  0.00    +0.120 A 
ATOM     39  N   UNL     1      29.006  16.334  20.769  0.00  0.00    -0.263 NA
ATOM     40  C   UNL     1      28.360  15.451  19.890  0.00  0.00    +0.111 A 
ENDBRANCH   4   3
ENDBRANCH  10   9
BRANCH  12  13
ATOM     13  N   UNL     1      19.976  17.591  28.081  0.00  0.00    -0.281 N 
ATOM     14  C   UNL     1      19.567  18.646  27.281  0.00  0.00    +0.248 C 
ATOM     30  O   UNL     1      20.319  19.339  26.613  0.00  0.00    -0.270 OA
ATOM     31  H   UNL     1      19.281  17.225  28.731  0.00  0.00    +0.155 HD
BRANCH  14  15
ATOM     15  C   UNL     1      18.113  18.990  27.228  0.00  0.00    +0.037 A 
ATOM     16  C   UNL     1      17.662  20.321  26.815  0.00  0.00    +0.013 A 
ATOM     17  C   UNL     1      16.255  20.632  26.789  0.00  0.00    +0.005 A 
ATOM     18  C   UNL     1      15.288  19.607  27.176  0.00  0.00    -0.033 A 
ATOM     28  C   UNL     1      15.763  18.293  27.576  0.00  0.00    +0.005 A 
ATOM     29  C   UNL     1      17.141  17.985  27.604  0.00  0.00    +0.013 A 
BRANCH  18  19
ATOM     19  C   UNL     1      13.768  19.857  27.198  0.00  0.00    +0.119 C 
BRANCH  19  20
ATOM     20  N   UNL     1      13.107  19.936  28.535  0.00  0.00    -0.302 NA
ATOM     21  C   UNL     1      14.062  19.557  29.671  0.00  0.00    +0.066 C 
ATOM     22  C   UNL     1      13.361  19.666  31.064  0.00  0.00    -0.064 C 
ATOM     23  N   UNL     1      12.120  18.772  31.079  0.00  0.00    +0.379 N 
ATOM     24  C   UNL     1      11.491  18.828  32.406  0.00  0.00    -0.096 C 
ATOM     25  H   UNL     1      12.457  17.724  30.908  0.00  0.00    -0.082 HD
ATOM     26  C   UNL     1      11.167  19.141  29.951  0.00  0.00    -0.064 C 
ATOM     27  C   UNL     1      11.881  19.057  28.573  0.00  0.00    +0.066 C 
ENDBRANCH  19  20
ENDBRANCH  18  19
ENDBRANCH  14  15
ENDBRANCH  12  13
TORSDOF 6
ENDMDL
MODEL 4
REMARK VINA RESULT:      -8.1     12.754     18.300
REMARK  Name = C:\Users\Docking\Desktop\test protocol\1iep_ligandH.pdb
REMARK  8 active torsions:
REMARK  status: ('A' for Active; 'I' for Inactive)
REMARK    1  A    between atoms: _5  and  _11
REMARK    2  A    between atoms: _19  and  _21
REMARK    3  A    between atoms: _22  and  _66
REMARK    4  A    between atoms: _27  and  _30
REMARK    5  A    between atoms: _32  and  _33
REMARK    6  A    between atoms: _38  and  _43
REMARK    7  A    between atoms: _43  and  _46
REMARK    8  A    between atoms: _53  and  _55
REMARK                            x       y       z     vdW  Elec       q    Type
REMARK                         _______ _______ _______ _____ _____    ______ ____
ROOT
ATOM     10  C   UNL     1      16.603  34.077  15.661  0.00  0.00    +0.038 A 
ATOM     11  C   UNL     1      16.704  35.482  15.830  0.00  0.00    +0.047 A 
ATOM     12  C   UNL     1      16.174  36.137  17.015  0.00  0.00    +0.035 A 
ATOM     32  C   UNL     1      15.549  35.330  18.011  0.00  0.00    +0.024 A 
ATOM     33  C   UNL     1      15.437  33.901  17.855  0.00  0.00    +0.007 A 
ATOM     34  C   UNL     1      15.956  33.250  16.687  0.00  0.00    -0.029 A 
ATOM     35  C   UNL     1      15.803  31.715  16.569  0.00  0.00    +0.045 C 
ENDROOT
BRANCH  10   9
ATOM      4  C   UNL     1      16.117  32.183  11.278  0.00  0.00    +0.077 A 
ATOM      5  C   UNL     1      14.690  32.330  11.308  0.00  0.00    +0.048 A 
ATOM      6  C   UNL     1      14.120  32.891  12.473  0.00  0.00    +0.116 A 
ATOM      7  N   UNL     1      14.927  33.273  13.523  0.00  0.00    -0.223 NA
ATOM      8  C   UNL     1      16.299  33.116  13.462  0.00  0.00    +0.220 A 
ATOM      9  N   UNL     1      17.130  33.500  14.503  0.00  0.00    -0.283 N 
ATOM     36  H   UNL     1      18.137  33.361  14.422  0.00  0.00    +0.155 HD
ATOM     37  N   UNL     1      16.867  32.581  12.361  0.00  0.00    -0.214 NA
BRANCH   4   3
ATOM      1  C   UNL     1      17.574  31.604   7.694  0.00  0.00    +0.020 A 
ATOM      2  C   UNL     1      16.830  32.196   8.782  0.00  0.00    +0.013 A 
ATOM      3  C   UNL     1      16.867  31.610  10.116  0.00  0.00    +0.019 A 
ATOM     38  C   UNL     1      17.673  30.415  10.317  0.00  0.00    +0.120 A 
ATOM     39  N   UNL     1      18.378  29.866   9.250  0.00  0.00    -0.263 NA
ATOM     40  C   UNL     1      18.348  30.421   7.962  0.00  0.00    +0.111 A 
ENDBRANCH   4   3
ENDBRANCH  10   9
BRANCH  12  13
ATOM     13  N   UNL     1      16.239  37.560  17.238  0.00  0.00    -0.281 N 
ATOM     14  C   UNL     1      17.123  38.255  18.047  0.00  0.00    +0.248 C 
ATOM     30  O   UNL     1      17.859  37.736  18.873  0.00  0.00    -0.270 OA
ATOM     31  H   UNL     1      15.551  38.123  16.738  0.00  0.00    +0.155 HD
BRANCH  14  15
ATOM     15  C   UNL     1      17.188  39.744  17.933  0.00  0.00    +0.037 A 
ATOM     16  C   UNL     1      17.383  40.589  19.113  0.00  0.00    +0.013 A 
ATOM     17  C   UNL     1      17.425  42.024  18.977  0.00  0.00    +0.005 A 
ATOM     18  C   UNL     1      17.273  42.622  17.653  0.00  0.00    -0.033 A 
ATOM     28  C   UNL     1      17.086  41.760  16.498  0.00  0.00    +0.005 A 
ATOM     29  C   UNL     1      17.043  40.354  16.628  0.00  0.00    +0.013 A 
BRANCH  18  19
ATOM     19  C   UNL     1      17.284  44.144  17.417  0.00  0.00    +0.119 C 
BRANCH  19  20
ATOM     20  N   UNL     1      16.012  44.772  16.948  0.00  0.00    -0.302 NA
ATOM     21  C   UNL     1      14.779  44.021  17.457  0.00  0.00    +0.066 C 
ATOM     22  C   UNL     1      13.458  44.705  16.976  0.00  0.00    -0.064 C 
ATOM     23  N   UNL     1      13.453  44.782  15.448  0.00  0.00    +0.379 N 
ATOM     24  C   UNL     1      12.187  45.371  14.990  0.00  0.00    -0.096 C 
ATOM     25  H   UNL     1      13.502  43.739  15.057  0.00  0.00    -0.082 HD
ATOM     26  C   UNL     1      14.678  45.525  14.934  0.00  0.00    -0.064 C 
ATOM     27  C   UNL     1      15.985  44.854  15.442  0.00  0.00    +0.066 C 
ENDBRANCH  19  20
ENDBRANCH  18  19
ENDBRANCH  14  15
ENDBRANCH  12  13
TORSDOF 6
ENDMDL
MODEL 5
REMARK VINA RESULT:      -8.0      3.714     13.114
REMARK  Name = C:\Users\Docking\Desktop\test protocol\1iep_ligandH.pdb
REMARK  8 active torsions:
REMARK  status: ('A' for Active; 'I' for Inactive)
REMARK    1  A    between atoms: _5  and  _11
REMARK    2  A    between atoms: _19  and  _21
REMARK    3  A    between atoms: _22  and  _66
REMARK    4  A    between atoms: _27  and  _30
REMARK    5  A    between atoms: _32  and  _33
REMARK    6  A    between atoms: _38  and  _43
REMARK    7  A    between atoms: _43  and  _46
REMARK    8  A    between atoms: _53  and  _55
REMARK                            x       y       z     vdW  Elec       q    Type
REMARK                         _______ _______ _______ _____ _____    ______ ____
ROOT
ATOM     10  C   UNL     1      20.638  23.149  18.220  0.00  0.00    +0.038 A 
ATOM     11  C   UNL     1      20.360  24.446  17.719  0.00  0.00    +0.047 A 
ATOM     12  C   UNL     1      21.047  24.963  16.546  0.00  0.00    +0.035 A 
ATOM     32  C   UNL     1      22.009  24.129  15.905  0.00  0.00    +0.024 A 
ATOM     33  C   UNL     1      22.305  22.808  16.401  0.00  0.00    +0.007 A 
ATOM     34  C   UNL     1      21.632  22.294  17.560  0.00  0.00    -0.029 A 
ATOM     35  C   UNL     1      21.994  20.874  18.052  0.00  0.00    +0.045 C 
ENDROOT
BRANCH  10   9
ATOM      4  C   UNL     1      20.370  22.227  22.923  0.00  0.00    +0.077 A 
ATOM      5  C   UNL     1      21.725  22.643  23.142  0.00  0.00    +0.048 A 
ATOM      6  C   UNL     1      22.460  23.080  22.017  0.00  0.00    +0.116 A 
ATOM      7  N   UNL     1      21.872  23.097  20.771  0.00  0.00    -0.223 NA
ATOM      8  C   UNL     1      20.563  22.688  20.594  0.00  0.00    +0.220 A 
ATOM      9  N   UNL     1      19.949  22.704  19.351  0.00  0.00    -0.283 N 
ATOM     36  H   UNL     1      18.984  22.387  19.261  0.00  0.00    +0.155 HD
ATOM     37  N   UNL     1      19.841  22.264  21.652  0.00  0.00    -0.214 NA
BRANCH   4   3
ATOM      1  C   UNL     1      17.282  21.758  25.279  0.00  0.00    +0.020 A 
ATOM      2  C   UNL     1      18.116  22.260  24.212  0.00  0.00    +0.013 A 
ATOM      3  C   UNL     1      19.464  21.743  24.013  0.00  0.00    +0.019 A 
ATOM     38  C   UNL     1      19.941  20.708  24.918  0.00  0.00    +0.120 A 
ATOM     39  N   UNL     1      19.116  20.244  25.937  0.00  0.00    -0.263 NA
ATOM     40  C   UNL     1      17.818  20.736  26.140  0.00  0.00    +0.111 A 
ENDBRANCH   4   3
ENDBRANCH  10   9
BRANCH  12  13
ATOM     13  N   UNL     1      20.812  26.275  15.996  0.00  0.00    -0.281 N 
ATOM     14  C   UNL     1      19.907  26.636  15.012  0.00  0.00    +0.248 C 
ATOM     30  O   UNL     1      19.307  25.845  14.299  0.00  0.00    -0.270 OA
ATOM     31  H   UNL     1      21.382  27.029  16.379  0.00  0.00    +0.155 HD
BRANCH  14  15
ATOM     15  C   UNL     1      19.639  28.088  14.774  0.00  0.00    +0.037 A 
ATOM     16  C   UNL     1      18.530  28.527  13.924  0.00  0.00    +0.013 A 
ATOM     17  C   UNL     1      18.305  29.933  13.698  0.00  0.00    +0.005 A 
ATOM     18  C   UNL     1      19.191  30.910  14.326  0.00  0.00    -0.033 A 
ATOM     28  C   UNL     1      20.281  30.447  15.169  0.00  0.00    +0.005 A 
ATOM     29  C   UNL     1      20.505  29.070  15.392  0.00  0.00    +0.013 A 
BRANCH  18  19
ATOM     19  C   UNL     1      19.038  32.429  14.123  0.00  0.00    +0.119 C 
BRANCH  19  20
ATOM     20  N   UNL     1      18.224  33.175  15.129  0.00  0.00    -0.302 NA
ATOM     21  C   UNL     1      17.219  34.121  14.467  0.00  0.00    +0.066 C 
ATOM     22  C   UNL     1      16.360  34.876  15.533  0.00  0.00    -0.064 C 
ATOM     23  N   UNL     1      17.286  35.644  16.478  0.00  0.00    +0.379 N 
ATOM     24  C   UNL     1      16.480  36.402  17.446  0.00  0.00    -0.096 C 
ATOM     25  H   UNL     1      17.859  36.379  15.865  0.00  0.00    -0.082 HD
ATOM     26  C   UNL     1      18.291  34.712  17.138  0.00  0.00    -0.064 C 
ATOM     27  C   UNL     1      19.118  33.944  16.069  0.00  0.00    +0.066 C 
ENDBRANCH  19  20
ENDBRANCH  18  19
ENDBRANCH  14  15
ENDBRANCH  12  13
TORSDOF 6
ENDMDL
