MODEL 1
REMARK VINA RESULT:      -8.6      0.000      0.000
REMARK  Name = C:\Users\Docking\Desktop\test protocol\1iep_ligandH.pdb
REMARK  8 active torsions:
REMARK  status: ('A' for Active; 'I' for Inactive)
REMARK    1  A    between atoms: _5  and  _11
REMARK    2  A    between atoms: _19  and  _21
REMARK    3  A    between atoms: _22  and  _66
REMARK    4  A    between atoms: _27  and  _30
REMARK    5  A    between atoms: _32  and  _33
REMARK    6  A    between atoms: _38  and  _43
REMARK    7  A    between atoms: _43  and  _46
REMARK    8  A    between atoms: _53  and  _55
REMARK                            x       y       z     vdW  Elec       q    Type
REMARK                         _______ _______ _______ _____ _____    ______ ____
ROOT
ATOM     10  C   UNL     1      -7.951  -4.370 -12.439  0.00  0.00    +0.038 A 
ATOM     11  C   UNL     1      -7.402  -3.178 -12.976  0.00  0.00    +0.047 A 
ATOM     12  C   UNL     1      -7.366  -1.949 -12.199  0.00  0.00    +0.035 A 
ATOM     32  C   UNL     1      -7.898  -1.971 -10.876  0.00  0.00    +0.024 A 
ATOM     33  C   UNL     1      -8.461  -3.173 -10.315  0.00  0.00    +0.007 A 
ATOM     34  C   UNL     1      -8.501  -4.388 -11.078  0.00  0.00    -0.029 A 
ATOM     35  C   UNL     1      -9.123  -5.646 -10.428  0.00  0.00    +0.045 C 
ENDROOT
BRANCH  10   9
ATOM      4  C   UNL     1      -9.571  -6.943 -16.153  0.00  0.00    +0.077 A 
ATOM      5  C   UNL     1     -10.498  -5.918 -16.535  0.00  0.00    +0.048 A 
ATOM      6  C   UNL     1     -10.532  -4.746 -15.746  0.00  0.00    +0.116 A 
ATOM      7  N   UNL     1      -9.696  -4.621 -14.657  0.00  0.00    -0.223 NA
ATOM      8  C   UNL     1      -8.815  -5.630 -14.315  0.00  0.00    +0.220 A 
ATOM      9  N   UNL     1      -7.959  -5.522 -13.229  0.00  0.00    -0.283 N 
ATOM     36  H   UNL     1      -7.329  -6.291 -13.006  0.00  0.00    +0.155 HD
ATOM     37  N   UNL     1      -8.764  -6.759 -15.052  0.00  0.00    -0.214 NA
BRANCH   4   3
ATOM      1  C   UNL     1     -10.166  -9.952 -18.581  0.00  0.00    +0.020 A 
ATOM      2  C   UNL     1     -10.363  -8.694 -17.898  0.00  0.00    +0.013 A 
ATOM      3  C   UNL     1      -9.415  -8.237 -16.890  0.00  0.00    +0.019 A 
ATOM     38  C   UNL     1      -8.268  -9.083 -16.594  0.00  0.00    +0.120 A 
ATOM     39  N   UNL     1      -8.105 -10.290 -17.267  0.00  0.00    -0.263 NA
ATOM     40  C   UNL     1      -9.012 -10.741 -18.238  0.00  0.00    +0.111 A 
ENDBRANCH   4   3
ENDBRANCH  10   9
BRANCH  12  13
ATOM     13  N   UNL     1      -6.828  -0.706 -12.694  0.00  0.00    -0.281 N 
ATOM     14  C   UNL     1      -5.550  -0.461 -13.168  0.00  0.00    +0.248 C 
ATOM     30  O   UNL     1      -4.606  -1.226 -13.039  0.00  0.00    -0.270 OA
ATOM     31  H   UNL     1      -7.467   0.089 -12.695  0.00  0.00    +0.155 HD
BRANCH  14  15
ATOM     15  C   UNL     1      -5.278   0.827 -13.876  0.00  0.00    +0.037 A 
ATOM     16  C   UNL     1      -4.485   0.864 -15.108  0.00  0.00    +0.013 A 
ATOM     17  C   UNL     1      -4.223   2.122 -15.761  0.00  0.00    +0.005 A 
ATOM     18  C   UNL     1      -4.756   3.354 -15.184  0.00  0.00    -0.033 A 
ATOM     28  C   UNL     1      -5.543   3.287 -13.964  0.00  0.00    +0.005 A 
ATOM     29  C   UNL     1      -5.802   2.056 -13.321  0.00  0.00    +0.013 A 
BRANCH  18  19
ATOM     19  C   UNL     1      -4.508   4.743 -15.802  0.00  0.00    +0.119 C 
BRANCH  19  20
ATOM     20  N   UNL     1      -4.219   4.798 -17.266  0.00  0.00    -0.302 NA
ATOM     21  C   UNL     1      -3.405   6.038 -17.645  0.00  0.00    +0.066 C 
ATOM     22  C   UNL     1      -3.093   6.068 -19.177  0.00  0.00    -0.064 C 
ATOM     23  N   UNL     1      -4.404   6.021 -19.963  0.00  0.00    +0.379 N 
ATOM     24  C   UNL     1      -4.117   6.108 -21.402  0.00  0.00    -0.096 C 
ATOM     25  H   UNL     1      -4.999   6.921 -19.681  0.00  0.00    -0.082 HD
ATOM     26  C   UNL     1      -5.222   4.792 -19.590  0.00  0.00    -0.064 C 
ATOM     27  C   UNL     1      -5.501   4.757 -18.062  0.00  0.00    +0.066 C 
ENDBRANCH  19  20
ENDBRANCH  18  19
ENDBRANCH  14  15
ENDBRANCH  12  13
TORSDOF 6
ENDMDL
MODEL 2
REMARK VINA RESULT:      -8.6      2.060      2.744
REMARK  Name = C:\Users\Docking\Desktop\test protocol\1iep_ligandH.pdb
REMARK  8 active torsions:
REMARK  status: ('A' for Active; 'I' for Inactive)
REMARK    1  A    between atoms: _5  and  _11
REMARK    2  A    between atoms: _19  and  _21
REMARK    3  A    between atoms: _22  and  _66
REMARK    4  A    between atoms: _27  and  _30
REMARK    5  A    between atoms: _32  and  _33
REMARK    6  A    between atoms: _38  and  _43
REMARK    7  A    between atoms: _43  and  _46
REMARK    8  A    between atoms: _53  and  _55
REMARK                            x       y       z     vdW  Elec       q    Type
REMARK                         _______ _______ _______ _____ _____    ______ ____
ROOT
ATOM     10  C   UNL     1      -7.947  -4.819 -11.466  0.00  0.00    +0.038 A 
ATOM     11  C   UNL     1      -7.590  -3.512 -11.885  0.00  0.00    +0.047 A 
ATOM     12  C   UNL     1      -7.468  -2.422 -10.930  0.00  0.00    +0.035 A 
ATOM     32  C   UNL     1      -7.715  -2.699  -9.554  0.00  0.00    +0.024 A 
ATOM     33  C   UNL     1      -8.080  -4.021  -9.110  0.00  0.00    +0.007 A 
ATOM     34  C   UNL     1      -8.204  -5.100 -10.048  0.00  0.00    -0.029 A 
ATOM     35  C   UNL     1      -8.605  -6.496  -9.516  0.00  0.00    +0.045 C 
ENDROOT
BRANCH  10   9
ATOM      4  C   UNL     1      -9.530  -6.521 -15.665  0.00  0.00    +0.077 A 
ATOM      5  C   UNL     1     -10.234  -5.306 -15.960  0.00  0.00    +0.048 A 
ATOM      6  C   UNL     1     -10.169  -4.270 -15.001  0.00  0.00    +0.116 A 
ATOM      7  N   UNL     1      -9.451  -4.447 -13.838  0.00  0.00    -0.223 NA
ATOM      8  C   UNL     1      -8.785  -5.632 -13.585  0.00  0.00    +0.220 A 
ATOM      9  N   UNL     1      -8.050  -5.828 -12.426  0.00  0.00    -0.283 N 
ATOM     36  H   UNL     1      -7.579  -6.720 -12.272  0.00  0.00    +0.155 HD
ATOM     37  N   UNL     1      -8.832  -6.637 -14.484  0.00  0.00    -0.214 NA
BRANCH   4   3
ATOM      1  C   UNL     1     -10.457  -9.122 -18.436  0.00  0.00    +0.020 A 
ATOM      2  C   UNL     1     -10.533  -7.963 -17.576  0.00  0.00    +0.013 A 
ATOM      3  C   UNL     1      -9.500  -7.705 -16.581  0.00  0.00    +0.019 A 
ATOM     38  C   UNL     1      -8.394  -8.646 -16.481  0.00  0.00    +0.120 A 
ATOM     39  N   UNL     1      -8.348  -9.754 -17.321  0.00  0.00    -0.263 NA
ATOM     40  C   UNL     1      -9.337 -10.013 -18.282  0.00  0.00    +0.111 A 
ENDBRANCH   4   3
ENDBRANCH  10   9
BRANCH  12  13
ATOM     13  N   UNL     1      -7.117  -1.073 -11.299  0.00  0.00    -0.281 N 
ATOM     14  C   UNL     1      -7.713   0.106 -10.883  0.00  0.00    +0.248 C 
ATOM     30  O   UNL     1      -8.783   0.170 -10.295  0.00  0.00    -0.270 OA
ATOM     31  H   UNL     1      -6.333  -0.976 -11.944  0.00  0.00    +0.155 HD
BRANCH  14  15
ATOM     15  C   UNL     1      -7.031   1.403 -11.177  0.00  0.00    +0.037 A 
ATOM     16  C   UNL     1      -7.047   2.505 -10.212  0.00  0.00    +0.013 A 
ATOM     17  C   UNL     1      -6.395   3.752 -10.527  0.00  0.00    +0.005 A 
ATOM     18  C   UNL     1      -5.720   3.902 -11.814  0.00  0.00    -0.033 A 
ATOM     28  C   UNL     1      -5.715   2.790 -12.750  0.00  0.00    +0.005 A 
ATOM     29  C   UNL     1      -6.354   1.567 -12.445  0.00  0.00    +0.013 A 
BRANCH  18  19
ATOM     19  C   UNL     1      -5.017   5.203 -12.243  0.00  0.00    +0.119 C 
BRANCH  19  20
ATOM     20  N   UNL     1      -4.625   5.327 -13.678  0.00  0.00    -0.302 NA
ATOM     21  C   UNL     1      -3.116   5.528 -13.847  0.00  0.00    +0.066 C 
ATOM     22  C   UNL     1      -2.721   5.633 -15.356  0.00  0.00    -0.064 C 
ATOM     23  N   UNL     1      -3.495   6.782 -16.004  0.00  0.00    +0.379 N 
ATOM     24  C   UNL     1      -3.083   6.920 -17.408  0.00  0.00    -0.096 C 
ATOM     25  H   UNL     1      -3.213   7.721 -15.474  0.00  0.00    -0.082 HD
ATOM     26  C   UNL     1      -4.996   6.591 -15.839  0.00  0.00    -0.064 C 
ATOM     27  C   UNL     1      -5.375   6.458 -14.338  0.00  0.00    +0.066 C 
ENDBRANCH  19  20
ENDBRANCH  18  19
ENDBRANCH  14  15
ENDBRANCH  12  13
TORSDOF 6
ENDMDL
MODEL 3
REMARK VINA RESULT:      -8.5      1.113      1.266
REMARK  Name = C:\Users\Docking\Desktop\test protocol\1iep_ligandH.pdb
REMARK  8 active torsions:
REMARK  status: ('A' for Active; 'I' for Inactive)
REMARK    1  A    between atoms: _5  and  _11
REMARK    2  A    between atoms: _19  and  _21
REMARK    3  A    between atoms: _22  and  _66
REMARK    4  A    between atoms: _27  and  _30
REMARK    5  A    between atoms: _32  and  _33
REMARK    6  A    between atoms: _38  and  _43
REMARK    7  A    between atoms: _43  and  _46
REMARK    8  A    between atoms: _53  and  _55
REMARK                            x       y       z     vdW  Elec       q    Type
REMARK                         _______ _______ _______ _____ _____    ______ ____
ROOT
ATOM     10  C   UNL     1      -8.142  -4.233 -11.770  0.00  0.00    +0.038 A 
ATOM     11  C   UNL     1      -7.761  -2.970 -12.291  0.00  0.00    +0.047 A 
ATOM     12  C   UNL     1      -7.752  -1.782 -11.452  0.00  0.00    +0.035 A 
ATOM     32  C   UNL     1      -8.133  -1.917 -10.085  0.00  0.00    +0.024 A 
ATOM     33  C   UNL     1      -8.523  -3.193  -9.540  0.00  0.00    +0.007 A 
ATOM     34  C   UNL     1      -8.537  -4.368 -10.363  0.00  0.00    -0.029 A 
ATOM     35  C   UNL     1      -8.971  -5.709  -9.726  0.00  0.00    +0.045 C 
ENDROOT
BRANCH  10   9
ATOM      4  C   UNL     1      -9.541  -6.526 -15.748  0.00  0.00    +0.077 A 
ATOM      5  C   UNL     1     -10.381  -5.436 -16.152  0.00  0.00    +0.048 A 
ATOM      6  C   UNL     1     -10.431  -4.307 -15.305  0.00  0.00    +0.116 A 
ATOM      7  N   UNL     1      -9.691  -4.280 -14.143  0.00  0.00    -0.223 NA
ATOM      8  C   UNL     1      -8.892  -5.349 -13.781  0.00  0.00    +0.220 A 
ATOM      9  N   UNL     1      -8.133  -5.341 -12.621  0.00  0.00    -0.283 N 
ATOM     36  H   UNL     1      -7.562  -6.152 -12.386  0.00  0.00    +0.155 HD
ATOM     37  N   UNL     1      -8.828  -6.440 -14.573  0.00  0.00    -0.214 NA
BRANCH   4   3
ATOM      1  C   UNL     1     -10.094  -9.404 -18.339  0.00  0.00    +0.020 A 
ATOM      2  C   UNL     1     -10.294  -8.175 -17.606  0.00  0.00    +0.013 A 
ATOM      3  C   UNL     1      -9.380  -7.788 -16.539  0.00  0.00    +0.019 A 
ATOM     38  C   UNL     1      -8.265  -8.672 -16.237  0.00  0.00    +0.120 A 
ATOM     39  N   UNL     1      -8.098  -9.849 -16.959  0.00  0.00    -0.263 NA
ATOM     40  C   UNL     1      -8.972 -10.233 -17.987  0.00  0.00    +0.111 A 
ENDBRANCH   4   3
ENDBRANCH  10   9
BRANCH  12  13
ATOM     13  N   UNL     1      -7.382  -0.472 -11.928  0.00  0.00    -0.281 N 
ATOM     14  C   UNL     1      -6.362   0.345 -11.469  0.00  0.00    +0.248 C 
ATOM     30  O   UNL     1      -5.742   0.160 -10.431  0.00  0.00    -0.270 OA
ATOM     31  H   UNL     1      -7.942  -0.101 -12.696  0.00  0.00    +0.155 HD
BRANCH  14  15
ATOM     15  C   UNL     1      -5.983   1.548 -12.270  0.00  0.00    +0.037 A 
ATOM     16  C   UNL     1      -5.789   1.465 -13.720  0.00  0.00    +0.013 A 
ATOM     17  C   UNL     1      -5.408   2.637 -14.467  0.00  0.00    +0.005 A 
ATOM     18  C   UNL     1      -5.220   3.904 -13.764  0.00  0.00    -0.033 A 
ATOM     28  C   UNL     1      -5.424   3.960 -12.326  0.00  0.00    +0.005 A 
ATOM     29  C   UNL     1      -5.797   2.812 -11.591  0.00  0.00    +0.013 A 
BRANCH  18  19
ATOM     19  C   UNL     1      -4.793   5.201 -14.478  0.00  0.00    +0.119 C 
BRANCH  19  20
ATOM     20  N   UNL     1      -4.555   5.125 -15.950  0.00  0.00    -0.302 NA
ATOM     21  C   UNL     1      -3.410   6.039 -16.395  0.00  0.00    +0.066 C 
ATOM     22  C   UNL     1      -3.160   5.930 -17.935  0.00  0.00    -0.064 C 
ATOM     23  N   UNL     1      -4.449   6.273 -18.683  0.00  0.00    +0.379 N 
ATOM     24  C   UNL     1      -4.202   6.228 -20.132  0.00  0.00    -0.096 C 
ATOM     25  H   UNL     1      -4.724   7.321 -18.419  0.00  0.00    -0.082 HD
ATOM     26  C   UNL     1      -5.594   5.371 -18.245  0.00  0.00    -0.064 C 
ATOM     27  C   UNL     1      -5.814   5.465 -16.709  0.00  0.00    +0.066 C 
ENDBRANCH  19  20
ENDBRANCH  18  19
ENDBRANCH  14  15
ENDBRANCH  12  13
TORSDOF 6
ENDMDL
MODEL 4
REMARK VINA RESULT:      -8.1      5.938     10.846
REMARK  Name = C:\Users\Docking\Desktop\test protocol\1iep_ligandH.pdb
REMARK  8 active torsions:
REMARK  status: ('A' for Active; 'I' for Inactive)
REMARK    1  A    between atoms: _5  and  _11
REMARK    2  A    between atoms: _19  and  _21
REMARK    3  A    between atoms: _22  and  _66
REMARK    4  A    between atoms: _27  and  _30
REMARK    5  A    between atoms: _32  and  _33
REMARK    6  A    between atoms: _38  and  _43
REMARK    7  A    between atoms: _43  and  _46
REMARK    8  A    between atoms: _53  and  _55
REMARK                            x       y       z     vdW  Elec       q    Type
REMARK                         _______ _______ _______ _____ _____    ______ ____
ROOT
ATOM     10  C   UNL     1      -7.125  -4.382 -11.235  0.00  0.00    +0.038 A 
ATOM     11  C   UNL     1      -7.861  -4.379 -10.023  0.00  0.00    +0.047 A 
ATOM     12  C   UNL     1      -7.567  -3.424  -8.966  0.00  0.00    +0.035 A 
ATOM     32  C   UNL     1      -6.518  -2.483  -9.179  0.00  0.00    +0.024 A 
ATOM     33  C   UNL     1      -5.758  -2.472 -10.404  0.00  0.00    +0.007 A 
ATOM     34  C   UNL     1      -6.042  -3.414 -11.449  0.00  0.00    -0.029 A 
ATOM     35  C   UNL     1      -5.192  -3.361 -12.740  0.00  0.00    +0.045 C 
ENDROOT
BRANCH  10   9
ATOM      4  C   UNL     1      -9.459  -5.715 -15.212  0.00  0.00    +0.077 A 
ATOM      5  C   UNL     1     -10.107  -4.440 -15.330  0.00  0.00    +0.048 A 
ATOM      6  C   UNL     1      -9.818  -3.472 -14.343  0.00  0.00    +0.116 A 
ATOM      7  N   UNL     1      -8.944  -3.766 -13.318  0.00  0.00    -0.223 NA
ATOM      8  C   UNL     1      -8.337  -5.006 -13.233  0.00  0.00    +0.220 A 
ATOM      9  N   UNL     1      -7.450  -5.321 -12.216  0.00  0.00    -0.283 N 
ATOM     36  H   UNL     1      -7.029  -6.250 -12.184  0.00  0.00    +0.155 HD
ATOM     37  N   UNL     1      -8.598  -5.949 -14.162  0.00  0.00    -0.214 NA
BRANCH   4   3
ATOM      1  C   UNL     1     -11.007  -8.090 -17.907  0.00  0.00    +0.020 A 
ATOM      2  C   UNL     1     -10.863  -6.985 -16.988  0.00  0.00    +0.013 A 
ATOM      3  C   UNL     1      -9.659  -6.840 -16.178  0.00  0.00    +0.019 A 
ATOM     38  C   UNL     1      -8.611  -7.839 -16.325  0.00  0.00    +0.120 A 
ATOM     39  N   UNL     1      -8.778  -8.894 -17.217  0.00  0.00    -0.263 NA
ATOM     40  C   UNL     1      -9.933  -9.044 -18.000  0.00  0.00    +0.111 A 
ENDBRANCH   4   3
ENDBRANCH  10   9
BRANCH  12  13
ATOM     13  N   UNL     1      -8.275  -3.378  -7.711  0.00  0.00    -0.281 N 
ATOM     14  C   UNL     1      -7.796  -3.695  -6.451  0.00  0.00    +0.248 C 
ATOM     30  O   UNL     1      -6.741  -4.274  -6.238  0.00  0.00    -0.270 OA
ATOM     31  H   UNL     1      -9.248  -3.076  -7.757  0.00  0.00    +0.155 HD
BRANCH  14  15
ATOM     15  C   UNL     1      -8.613  -3.330  -5.254  0.00  0.00    +0.037 A 
ATOM     16  C   UNL     1      -9.715  -4.181  -4.797  0.00  0.00    +0.013 A 
ATOM     17  C   UNL     1     -10.498  -3.796  -3.650  0.00  0.00    +0.005 A 
ATOM     18  C   UNL     1     -10.182  -2.553  -2.951  0.00  0.00    -0.033 A 
ATOM     28  C   UNL     1      -9.081  -1.730  -3.422  0.00  0.00    +0.005 A 
ATOM     29  C   UNL     1      -8.311  -2.103  -4.547  0.00  0.00    +0.013 A 
BRANCH  18  19
ATOM     19  C   UNL     1     -10.978  -2.054  -1.731  0.00  0.00    +0.119 C 
BRANCH  19  20
ATOM     20  N   UNL     1     -12.338  -1.492  -1.985  0.00  0.00    -0.302 NA
ATOM     21  C   UNL     1     -13.439  -2.537  -1.784  0.00  0.00    +0.066 C 
ATOM     22  C   UNL     1     -14.857  -1.926  -2.033  0.00  0.00    -0.064 C 
ATOM     23  N   UNL     1     -14.916  -1.342  -3.445  0.00  0.00    +0.379 N 
ATOM     24  C   UNL     1     -16.266  -0.818  -3.703  0.00  0.00    -0.096 C 
ATOM     25  H   UNL     1     -14.733  -2.174  -4.164  0.00  0.00    -0.082 HD
ATOM     26  C   UNL     1     -13.823  -0.303  -3.654  0.00  0.00    -0.064 C 
ATOM     27  C   UNL     1     -12.421  -0.913  -3.376  0.00  0.00    +0.066 C 
ENDBRANCH  19  20
ENDBRANCH  18  19
ENDBRANCH  14  15
ENDBRANCH  12  13
TORSDOF 6
ENDMDL
MODEL 5
REMARK VINA RESULT:      -8.1      2.266     12.164
REMARK  Name = C:\Users\Docking\Desktop\test protocol\1iep_ligandH.pdb
REMARK  8 active torsions:
REMARK  status: ('A' for Active; 'I' for Inactive)
REMARK    1  A    between atoms: _5  and  _11
REMARK    2  A    between atoms: _19  and  _21
REMARK    3  A    between atoms: _22  and  _66
REMARK    4  A    between atoms: _27  and  _30
REMARK    5  A    between atoms: _32  and  _33
REMARK    6  A    between atoms: _38  and  _43
REMARK    7  A    between atoms: _43  and  _46
REMARK    8  A    between atoms: _53  and  _55
REMARK                            x       y       z     vdW  Elec       q    Type
REMARK                         _______ _______ _______ _____ _____    ______ ____
ROOT
ATOM     10  C   UNL     1      -7.242  -1.737 -12.127  0.00  0.00    +0.038 A 
ATOM     11  C   UNL     1      -7.788  -2.676 -13.039  0.00  0.00    +0.047 A 
ATOM     12  C   UNL     1      -7.874  -4.089 -12.702  0.00  0.00    +0.035 A 
ATOM     32  C   UNL     1      -7.398  -4.509 -11.426  0.00  0.00    +0.024 A 
ATOM     33  C   UNL     1      -6.840  -3.568 -10.488  0.00  0.00    +0.007 A 
ATOM     34  C   UNL     1      -6.749  -2.174 -10.815  0.00  0.00    -0.029 A 
ATOM     35  C   UNL     1      -6.135  -1.211  -9.773  0.00  0.00    +0.045 C 
ENDROOT
BRANCH  10   9
ATOM      4  C   UNL     1      -4.999   2.006 -14.127  0.00  0.00    +0.077 A 
ATOM      5  C   UNL     1      -3.834   1.223 -14.425  0.00  0.00    +0.048 A 
ATOM      6  C   UNL     1      -3.850  -0.136 -14.041  0.00  0.00    +0.116 A 
ATOM      7  N   UNL     1      -4.953  -0.664 -13.407  0.00  0.00    -0.223 NA
ATOM      8  C   UNL     1      -6.060   0.119 -13.132  0.00  0.00    +0.220 A 
ATOM      9  N   UNL     1      -7.184  -0.392 -12.502  0.00  0.00    -0.283 N 
ATOM     36  H   UNL     1      -7.977   0.219 -12.310  0.00  0.00    +0.155 HD
ATOM     37  N   UNL     1      -6.069   1.421 -13.487  0.00  0.00    -0.214 NA
BRANCH   4   3
ATOM      1  C   UNL     1      -5.156   5.906 -13.870  0.00  0.00    +0.020 A 
ATOM      2  C   UNL     1      -5.017   4.521 -13.484  0.00  0.00    +0.013 A 
ATOM      3  C   UNL     1      -5.135   3.456 -14.472  0.00  0.00    +0.019 A 
ATOM     38  C   UNL     1      -5.396   3.830 -15.854  0.00  0.00    +0.120 A 
ATOM     39  N   UNL     1      -5.527   5.172 -16.196  0.00  0.00    -0.263 NA
ATOM     40  C   UNL     1      -5.417   6.205 -15.253  0.00  0.00    +0.111 A 
ENDBRANCH   4   3
ENDBRANCH  10   9
BRANCH  12  13
ATOM     13  N   UNL     1      -8.411  -5.090 -13.591  0.00  0.00    -0.281 N 
ATOM     14  C   UNL     1      -9.396  -4.935 -14.552  0.00  0.00    +0.248 C 
ATOM     30  O   UNL     1     -10.120  -3.955 -14.649  0.00  0.00    -0.270 OA
ATOM     31  H   UNL     1      -8.017  -6.026 -13.499  0.00  0.00    +0.155 HD
BRANCH  14  15
ATOM     15  C   UNL     1      -9.619  -6.034 -15.541  0.00  0.00    +0.037 A 
ATOM     16  C   UNL     1     -10.856  -6.113 -16.322  0.00  0.00    +0.013 A 
ATOM     17  C   UNL     1     -11.052  -7.193 -17.257  0.00  0.00    +0.005 A 
ATOM     18  C   UNL     1     -10.008  -8.202 -17.415  0.00  0.00    -0.033 A 
ATOM     28  C   UNL     1      -8.788  -8.096 -16.631  0.00  0.00    +0.005 A 
ATOM     29  C   UNL     1      -8.593  -7.039 -15.714  0.00  0.00    +0.013 A 
BRANCH  18  19
ATOM     19  C   UNL     1     -10.141  -9.400 -18.374  0.00  0.00    +0.119 C 
BRANCH  19  20
ATOM     20  N   UNL     1      -9.409 -10.651 -18.011  0.00  0.00    -0.302 NA
ATOM     21  C   UNL     1      -9.125 -11.526 -19.235  0.00  0.00    +0.066 C 
ATOM     22  C   UNL     1      -8.339 -12.818 -18.841  0.00  0.00    -0.064 C 
ATOM     23  N   UNL     1      -9.135 -13.596 -17.792  0.00  0.00    +0.379 N 
ATOM     24  C   UNL     1      -8.426 -14.841 -17.462  0.00  0.00    -0.096 C 
ATOM     25  H   UNL     1     -10.113 -13.875 -18.248  0.00  0.00    -0.082 HD
ATOM     26  C   UNL     1      -9.423 -12.732 -16.573  0.00  0.00    -0.064 C 
ATOM     27  C   UNL     1     -10.179 -11.437 -16.979  0.00  0.00    +0.066 C 
ENDBRANCH  19  20
ENDBRANCH  18  19
ENDBRANCH  14  15
ENDBRANCH  12  13
TORSDOF 6
ENDMDL
