MODEL 1
REMARK VINA RESULT:      -8.6      0.000      0.000
REMARK  Name = C:\Users\Docking\Desktop\test protocol\1iep_ligandH.pdb
REMARK  8 active torsions:
REMARK  status: ('A' for Active; 'I' for Inactive)
REMARK    1  A    between atoms: _5  and  _11
REMARK    2  A    between atoms: _19  and  _21
REMARK    3  A    between atoms: _22  and  _66
REMARK    4  A    between atoms: _27  and  _30
REMARK    5  A    between atoms: _32  and  _33
REMARK    6  A    between atoms: _38  and  _43
REMARK    7  A    between atoms: _43  and  _46
REMARK    8  A    between atoms: _53  and  _55
REMARK                            x       y       z     vdW  Elec       q    Type
REMARK                         _______ _______ _______ _____ _____    ______ ____
ROOT
ATOM     10  C   UNL     1      16.828  34.367  15.686  0.00  0.00    +0.038 A 
ATOM     11  C   UNL     1      16.708  35.764  15.897  0.00  0.00    +0.047 A 
ATOM     12  C   UNL     1      16.251  36.297  17.171  0.00  0.00    +0.035 A 
ATOM     32  C   UNL     1      15.928  35.376  18.211  0.00  0.00    +0.024 A 
ATOM     33  C   UNL     1      16.043  33.953  18.013  0.00  0.00    +0.007 A 
ATOM     34  C   UNL     1      16.490  33.422  16.758  0.00  0.00    -0.029 A 
ATOM     35  C   UNL     1      16.588  31.887  16.600  0.00  0.00    +0.045 C 
ENDROOT
BRANCH  10   9
ATOM      4  C   UNL     1      16.028  32.610  11.291  0.00  0.00    +0.077 A 
ATOM      5  C   UNL     1      14.610  32.573  11.500  0.00  0.00    +0.048 A 
ATOM      6  C   UNL     1      14.127  33.007  12.755  0.00  0.00    +0.116 A 
ATOM      7  N   UNL     1      15.006  33.445  13.721  0.00  0.00    -0.223 NA
ATOM      8  C   UNL     1      16.369  33.467  13.488  0.00  0.00    +0.220 A 
ATOM      9  N   UNL     1      17.271  33.911  14.443  0.00  0.00    -0.283 N 
ATOM     36  H   UNL     1      18.269  33.904  14.235  0.00  0.00    +0.155 HD
ATOM     37  N   UNL     1      16.855  33.055  12.299  0.00  0.00    -0.214 NA
BRANCH   4   3
ATOM      1  C   UNL     1      17.140  32.419   7.546  0.00  0.00    +0.020 A 
ATOM      2  C   UNL     1      16.475  32.868   8.747  0.00  0.00    +0.013 A 
ATOM      3  C   UNL     1      16.691  32.186  10.018  0.00  0.00    +0.019 A 
ATOM     38  C   UNL     1      17.594  31.046  10.038  0.00  0.00    +0.120 A 
ATOM     39  N   UNL     1      18.220  30.635   8.865  0.00  0.00    -0.263 NA
ATOM     40  C   UNL     1      18.018  31.282   7.637  0.00  0.00    +0.111 A 
ENDBRANCH   4   3
ENDBRANCH  10   9
BRANCH  12  13
ATOM     13  N   UNL     1      16.102  37.705  17.441  0.00  0.00    -0.281 N 
ATOM     14  C   UNL     1      17.083  38.683  17.427  0.00  0.00    +0.248 C 
ATOM     30  O   UNL     1      18.283  38.458  17.388  0.00  0.00    -0.270 OA
ATOM     31  H   UNL     1      15.159  38.019  17.670  0.00  0.00    +0.155 HD
BRANCH  14  15
ATOM     15  C   UNL     1      16.671  40.119  17.477  0.00  0.00    +0.037 A 
ATOM     16  C   UNL     1      17.320  41.126  16.633  0.00  0.00    +0.013 A 
ATOM     17  C   UNL     1      16.916  42.507  16.713  0.00  0.00    +0.005 A 
ATOM     18  C   UNL     1      15.854  42.889  17.641  0.00  0.00    -0.033 A 
ATOM     28  C   UNL     1      15.223  41.869  18.463  0.00  0.00    +0.005 A 
ATOM     29  C   UNL     1      15.618  40.515  18.387  0.00  0.00    +0.013 A 
BRANCH  18  19
ATOM     19  C   UNL     1      15.372  44.343  17.808  0.00  0.00    +0.119 C 
BRANCH  19  20
ATOM     20  N   UNL     1      13.900  44.586  17.753  0.00  0.00    -0.302 NA
ATOM     21  C   UNL     1      13.470  45.209  16.422  0.00  0.00    +0.066 C 
ATOM     22  C   UNL     1      11.924  45.436  16.373  0.00  0.00    -0.064 C 
ATOM     23  N   UNL     1      11.504  46.322  17.547  0.00  0.00    +0.379 N 
ATOM     24  C   UNL     1      10.059  46.585  17.471  0.00  0.00    -0.096 C 
ATOM     25  H   UNL     1      12.031  47.298  17.439  0.00  0.00    -0.082 HD
ATOM     26  C   UNL     1      11.930  45.711  18.874  0.00  0.00    -0.064 C 
ATOM     27  C   UNL     1      13.464  45.463  18.901  0.00  0.00    +0.066 C 
ENDBRANCH  19  20
ENDBRANCH  18  19
ENDBRANCH  14  15
ENDBRANCH  12  13
TORSDOF 6
ENDMDL
MODEL 2
REMARK VINA RESULT:      -8.5     13.805     19.337
REMARK  Name = C:\Users\Docking\Desktop\test protocol\1iep_ligandH.pdb
REMARK  8 active torsions:
REMARK  status: ('A' for Active; 'I' for Inactive)
REMARK    1  A    between atoms: _5  and  _11
REMARK    2  A    between atoms: _19  and  _21
REMARK    3  A    between atoms: _22  and  _66
REMARK    4  A    between atoms: _27  and  _30
REMARK    5  A    between atoms: _32  and  _33
REMARK    6  A    between atoms: _38  and  _43
REMARK    7  A    between atoms: _43  and  _46
REMARK    8  A    between atoms: _53  and  _55
REMARK                            x       y       z     vdW  Elec       q    Type
REMARK                         _______ _______ _______ _____ _____    ______ ____
ROOT
ATOM     10  C   UNL     1      20.920  24.080  20.188  0.00  0.00    +0.038 A 
ATOM     11  C   UNL     1      19.880  23.657  21.056  0.00  0.00    +0.047 A 
ATOM     12  C   UNL     1      20.174  22.955  22.295  0.00  0.00    +0.035 A 
ATOM     32  C   UNL     1      21.538  22.701  22.621  0.00  0.00    +0.024 A 
ATOM     33  C   UNL     1      22.607  23.122  21.750  0.00  0.00    +0.007 A 
ATOM     34  C   UNL     1      22.323  23.813  20.525  0.00  0.00    -0.029 A 
ATOM     35  C   UNL     1      23.509  24.236  19.626  0.00  0.00    +0.045 C 
ENDROOT
BRANCH  10   9
ATOM      4  C   UNL     1      19.850  24.141  15.509  0.00  0.00    +0.077 A 
ATOM      5  C   UNL     1      20.006  22.720  15.395  0.00  0.00    +0.048 A 
ATOM      6  C   UNL     1      20.369  22.010  16.561  0.00  0.00    +0.116 A 
ATOM      7  N   UNL     1      20.559  22.683  17.749  0.00  0.00    -0.223 NA
ATOM      8  C   UNL     1      20.402  24.055  17.825  0.00  0.00    +0.220 A 
ATOM      9  N   UNL     1      20.580  24.750  19.011  0.00  0.00    -0.283 N 
ATOM     36  H   UNL     1      20.462  25.763  19.024  0.00  0.00    +0.155 HD
ATOM     37  N   UNL     1      20.057  24.755  16.725  0.00  0.00    -0.214 NA
BRANCH   4   3
ATOM      1  C   UNL     1      18.910  25.435  11.939  0.00  0.00    +0.020 A 
ATOM      2  C   UNL     1      19.282  24.535  13.007  0.00  0.00    +0.013 A 
ATOM      3  C   UNL     1      19.466  25.029  14.366  0.00  0.00    +0.019 A 
ATOM     38  C   UNL     1      19.263  26.448  14.613  0.00  0.00    +0.120 A 
ATOM     39  N   UNL     1      18.907  27.291  13.565  0.00  0.00    -0.263 NA
ATOM     40  C   UNL     1      18.729  26.828  12.253  0.00  0.00    +0.111 A 
ENDBRANCH   4   3
ENDBRANCH  10   9
BRANCH  12  13
ATOM     13  N   UNL     1      19.161  22.495  23.212  0.00  0.00    -0.281 N 
ATOM     14  C   UNL     1      18.674  21.207  23.367  0.00  0.00    +0.248 C 
ATOM     30  O   UNL     1      18.886  20.290  22.589  0.00  0.00    -0.270 OA
ATOM     31  H   UNL     1      18.753  23.205  23.821  0.00  0.00    +0.155 HD
BRANCH  14  15
ATOM     15  C   UNL     1      17.815  20.898  24.551  0.00  0.00    +0.037 A 
ATOM     16  C   UNL     1      17.588  21.890  25.605  0.00  0.00    +0.013 A 
ATOM     17  C   UNL     1      16.770  21.560  26.745  0.00  0.00    +0.005 A 
ATOM     18  C   UNL     1      16.170  20.230  26.835  0.00  0.00    -0.033 A 
ATOM     28  C   UNL     1      16.408  19.267  25.772  0.00  0.00    +0.005 A 
ATOM     29  C   UNL     1      17.210  19.587  24.655  0.00  0.00    +0.013 A 
BRANCH  18  19
ATOM     19  C   UNL     1      15.300  19.784  28.025  0.00  0.00    +0.119 C 
BRANCH  19  20
ATOM     20  N   UNL     1      16.009  19.367  29.272  0.00  0.00    -0.302 NA
ATOM     21  C   UNL     1      16.930  18.167  29.034  0.00  0.00    +0.066 C 
ATOM     22  C   UNL     1      17.680  17.758  30.344  0.00  0.00    -0.064 C 
ATOM     23  N   UNL     1      16.658  17.447  31.438  0.00  0.00    +0.379 N 
ATOM     24  C   UNL     1      17.359  17.007  32.653  0.00  0.00    -0.096 C 
ATOM     25  H   UNL     1      16.030  16.598  31.083  0.00  0.00    -0.082 HD
ATOM     26  C   UNL     1      15.736  18.634  31.679  0.00  0.00    -0.064 C 
ATOM     27  C   UNL     1      15.018  19.051  30.365  0.00  0.00    +0.066 C 
ENDBRANCH  19  20
ENDBRANCH  18  19
ENDBRANCH  14  15
ENDBRANCH  12  13
TORSDOF 6
ENDMDL
MODEL 3
REMARK VINA RESULT:      -8.5     12.702     18.417
REMARK  Name = C:\Users\Docking\Desktop\test protocol\1iep_ligandH.pdb
REMARK  8 active torsions:
REMARK  status: ('A' for Active; 'I' for Inactive)
REMARK    1  A    between atoms: _5  and  _11
REMARK    2  A    between atoms: _19  and  _21
REMARK    3  A    between atoms: _22  and  _66
REMARK    4  A    between atoms: _27  and  _30
REMARK    5  A    between atoms: _32  and  _33
REMARK    6  A    between atoms: _38  and  _43
REMARK    7  A    between atoms: _43  and  _46
REMARK    8  A    between atoms: _53  and  _55
REMARK                            x       y       z     vdW  Elec       q    Type
REMARK                         _______ _______ _______ _____ _____    ______ ____
ROOT
ATOM     10  C   UNL     1      20.892  24.258  18.712  0.00  0.00    +0.038 A 
ATOM     11  C   UNL     1      20.036  23.664  19.674  0.00  0.00    +0.047 A 
ATOM     12  C   UNL     1      20.501  22.583  20.529  0.00  0.00    +0.035 A 
ATOM     32  C   UNL     1      21.845  22.133  20.379  0.00  0.00    +0.024 A 
ATOM     33  C   UNL     1      22.728  22.725  19.404  0.00  0.00    +0.007 A 
ATOM     34  C   UNL     1      22.274  23.790  18.556  0.00  0.00    -0.029 A 
ATOM     35  C   UNL     1      23.262  24.382  17.525  0.00  0.00    +0.045 C 
ENDROOT
BRANCH  10   9
ATOM      4  C   UNL     1      19.240  25.976  14.545  0.00  0.00    +0.077 A 
ATOM      5  C   UNL     1      19.410  24.712  13.889  0.00  0.00    +0.048 A 
ATOM      6  C   UNL     1      19.932  23.647  14.657  0.00  0.00    +0.116 A 
ATOM      7  N   UNL     1      20.256  23.843  15.982  0.00  0.00    -0.223 NA
ATOM      8  C   UNL     1      20.081  25.076  16.584  0.00  0.00    +0.220 A 
ATOM      9  N   UNL     1      20.393  25.293  17.917  0.00  0.00    -0.283 N 
ATOM     36  H   UNL     1      20.256  26.219  18.322  0.00  0.00    +0.155 HD
ATOM     37  N   UNL     1      19.585  26.109  15.872  0.00  0.00    -0.214 NA
BRANCH   4   3
ATOM      1  C   UNL     1      18.106  29.648  13.816  0.00  0.00    +0.020 A 
ATOM      2  C   UNL     1      18.640  28.502  14.514  0.00  0.00    +0.013 A 
ATOM      3  C   UNL     1      18.696  27.196  13.869  0.00  0.00    +0.019 A 
ATOM     38  C   UNL     1      18.200  27.084  12.505  0.00  0.00    +0.120 A 
ATOM     39  N   UNL     1      17.690  28.206  11.859  0.00  0.00    -0.263 NA
ATOM     40  C   UNL     1      17.630  29.467  12.470  0.00  0.00    +0.111 A 
ENDBRANCH   4   3
ENDBRANCH  10   9
BRANCH  12  13
ATOM     13  N   UNL     1      19.675  21.937  21.519  0.00  0.00    -0.281 N 
ATOM     14  C   UNL     1      19.824  21.955  22.896  0.00  0.00    +0.248 C 
ATOM     30  O   UNL     1      20.820  22.358  23.478  0.00  0.00    -0.270 OA
ATOM     31  H   UNL     1      18.885  21.400  21.160  0.00  0.00    +0.155 HD
BRANCH  14  15
ATOM     15  C   UNL     1      18.711  21.438  23.749  0.00  0.00    +0.037 A 
ATOM     16  C   UNL     1      18.191  20.079  23.578  0.00  0.00    +0.013 A 
ATOM     17  C   UNL     1      17.105  19.611  24.403  0.00  0.00    +0.005 A 
ATOM     18  C   UNL     1      16.534  20.504  25.409  0.00  0.00    -0.033 A 
ATOM     28  C   UNL     1      17.073  21.845  25.561  0.00  0.00    +0.005 A 
ATOM     29  C   UNL     1      18.136  22.308  24.753  0.00  0.00    +0.013 A 
BRANCH  18  19
ATOM     19  C   UNL     1      15.360  20.097  26.319  0.00  0.00    +0.119 C 
BRANCH  19  20
ATOM     20  N   UNL     1      15.667  19.840  27.758  0.00  0.00    -0.302 NA
ATOM     21  C   UNL     1      16.725  18.747  27.934  0.00  0.00    +0.066 C 
ATOM     22  C   UNL     1      17.051  18.508  29.444  0.00  0.00    -0.064 C 
ATOM     23  N   UNL     1      15.765  18.143  30.188  0.00  0.00    +0.379 N 
ATOM     24  C   UNL     1      16.077  17.860  31.597  0.00  0.00    -0.096 C 
ATOM     25  H   UNL     1      15.367  17.205  29.735  0.00  0.00    -0.082 HD
ATOM     26  C   UNL     1      14.707  19.223  30.017  0.00  0.00    -0.064 C 
ATOM     27  C   UNL     1      14.412  19.474  28.511  0.00  0.00    +0.066 C 
ENDBRANCH  19  20
ENDBRANCH  18  19
ENDBRANCH  14  15
ENDBRANCH  12  13
TORSDOF 6
ENDMDL
MODEL 4
REMARK VINA RESULT:      -8.2      6.611     14.776
REMARK  Name = C:\Users\Docking\Desktop\test protocol\1iep_ligandH.pdb
REMARK  8 active torsions:
REMARK  status: ('A' for Active; 'I' for Inactive)
REMARK    1  A    between atoms: _5  and  _11
REMARK    2  A    between atoms: _19  and  _21
REMARK    3  A    between atoms: _22  and  _66
REMARK    4  A    between atoms: _27  and  _30
REMARK    5  A    between atoms: _32  and  _33
REMARK    6  A    between atoms: _38  and  _43
REMARK    7  A    between atoms: _43  and  _46
REMARK    8  A    between atoms: _53  and  _55
REMARK                            x       y       z     vdW  Elec       q    Type
REMARK                         _______ _______ _______ _____ _____    ______ ____
ROOT
ATOM     10  C   UNL     1      17.439  31.922  13.153  0.00  0.00    +0.038 A 
ATOM     11  C   UNL     1      17.808  30.658  13.679  0.00  0.00    +0.047 A 
ATOM     12  C   UNL     1      17.503  29.428  12.964  0.00  0.00    +0.035 A 
ATOM     32  C   UNL     1      16.825  29.523  11.714  0.00  0.00    +0.024 A 
ATOM     33  C   UNL     1      16.442  30.800  11.165  0.00  0.00    +0.007 A 
ATOM     34  C   UNL     1      16.737  32.016  11.867  0.00  0.00    -0.029 A 
ATOM     35  C   UNL     1      16.297  33.357  11.234  0.00  0.00    +0.045 C 
ENDROOT
BRANCH  10   9
ATOM      4  C   UNL     1      16.814  34.874  16.885  0.00  0.00    +0.077 A 
ATOM      5  C   UNL     1      15.747  34.074  17.415  0.00  0.00    +0.048 A 
ATOM      6  C   UNL     1      15.385  32.915  16.693  0.00  0.00    +0.116 A 
ATOM      7  N   UNL     1      16.048  32.589  15.529  0.00  0.00    -0.223 NA
ATOM      8  C   UNL     1      17.071  33.383  15.045  0.00  0.00    +0.220 A 
ATOM      9  N   UNL     1      17.756  33.071  13.881  0.00  0.00    -0.283 N 
ATOM     36  H   UNL     1      18.500  33.686  13.553  0.00  0.00    +0.155 HD
ATOM     37  N   UNL     1      17.434  34.496  15.716  0.00  0.00    -0.214 NA
BRANCH   4   3
ATOM      1  C   UNL     1      17.090  38.557  18.172  0.00  0.00    +0.020 A 
ATOM      2  C   UNL     1      16.563  37.376  17.529  0.00  0.00    +0.013 A 
ATOM      3  C   UNL     1      17.313  36.127  17.536  0.00  0.00    +0.019 A 
ATOM     38  C   UNL     1      18.603  36.105  18.209  0.00  0.00    +0.120 A 
ATOM     39  N   UNL     1      19.086  37.259  18.819  0.00  0.00    -0.263 NA
ATOM     40  C   UNL     1      18.374  38.468  18.817  0.00  0.00    +0.111 A 
ENDBRANCH   4   3
ENDBRANCH  10   9
BRANCH  12  13
ATOM     13  N   UNL     1      17.846  28.115  13.452  0.00  0.00    -0.281 N 
ATOM     14  C   UNL     1      18.972  27.364  13.159  0.00  0.00    +0.248 C 
ATOM     30  O   UNL     1      19.758  27.620  12.259  0.00  0.00    -0.270 OA
ATOM     31  H   UNL     1      17.176  27.687  14.092  0.00  0.00    +0.155 HD
BRANCH  14  15
ATOM     15  C   UNL     1      19.259  26.144  13.973  0.00  0.00    +0.037 A 
ATOM     16  C   UNL     1      19.391  24.826  13.347  0.00  0.00    +0.013 A 
ATOM     17  C   UNL     1      19.651  23.663  14.158  0.00  0.00    +0.005 A 
ATOM     18  C   UNL     1      19.782  23.813  15.605  0.00  0.00    -0.033 A 
ATOM     28  C   UNL     1      19.652  25.133  16.199  0.00  0.00    +0.005 A 
ATOM     29  C   UNL     1      19.396  26.275  15.408  0.00  0.00    +0.013 A 
BRANCH  18  19
ATOM     19  C   UNL     1      20.038  22.624  16.550  0.00  0.00    +0.119 C 
BRANCH  19  20
ATOM     20  N   UNL     1      20.584  22.933  17.905  0.00  0.00    -0.302 NA
ATOM     21  C   UNL     1      21.359  21.751  18.495  0.00  0.00    +0.066 C 
ATOM     22  C   UNL     1      21.942  22.100  19.903  0.00  0.00    -0.064 C 
ATOM     23  N   UNL     1      20.803  22.520  20.834  0.00  0.00    +0.379 N 
ATOM     24  C   UNL     1      21.341  22.792  22.175  0.00  0.00    -0.096 C 
ATOM     25  H   UNL     1      20.101  21.658  20.919  0.00  0.00    -0.082 HD
ATOM     26  C   UNL     1      20.026  23.692  20.254  0.00  0.00    -0.064 C 
ATOM     27  C   UNL     1      19.476  23.346  18.842  0.00  0.00    +0.066 C 
ENDBRANCH  19  20
ENDBRANCH  18  19
ENDBRANCH  14  15
ENDBRANCH  12  13
TORSDOF 6
ENDMDL
MODEL 5
REMARK VINA RESULT:      -8.2      1.816      1.997
REMARK  Name = C:\Users\Docking\Desktop\test protocol\1iep_ligandH.pdb
REMARK  8 active torsions:
REMARK  status: ('A' for Active; 'I' for Inactive)
REMARK    1  A    between atoms: _5  and  _11
REMARK    2  A    between atoms: _19  and  _21
REMARK    3  A    between atoms: _22  and  _66
REMARK    4  A    between atoms: _27  and  _30
REMARK    5  A    between atoms: _32  and  _33
REMARK    6  A    between atoms: _38  and  _43
REMARK    7  A    between atoms: _43  and  _46
REMARK    8  A    between atoms: _53  and  _55
REMARK                            x       y       z     vdW  Elec       q    Type
REMARK                         _______ _______ _______ _____ _____    ______ ____
ROOT
ATOM     10  C   UNL     1      16.627  34.232  15.818  0.00  0.00    +0.038 A 
ATOM     11  C   UNL     1      16.856  35.632  15.851  0.00  0.00    +0.047 A 
ATOM     12  C   UNL     1      16.313  36.458  16.918  0.00  0.00    +0.035 A 
ATOM     32  C   UNL     1      15.543  35.826  17.937  0.00  0.00    +0.024 A 
ATOM     33  C   UNL     1      15.299  34.405  17.919  0.00  0.00    +0.007 A 
ATOM     34  C   UNL     1      15.830  33.585  16.868  0.00  0.00    -0.029 A 
ATOM     35  C   UNL     1      15.532  32.068  16.895  0.00  0.00    +0.045 C 
ENDROOT
BRANCH  10   9
ATOM      4  C   UNL     1      16.293  32.039  11.562  0.00  0.00    +0.077 A 
ATOM      5  C   UNL     1      14.908  32.385  11.426  0.00  0.00    +0.048 A 
ATOM      6  C   UNL     1      14.316  33.121  12.477  0.00  0.00    +0.116 A 
ATOM      7  N   UNL     1      15.065  33.480  13.577  0.00  0.00    -0.223 NA
ATOM      8  C   UNL     1      16.399  33.129  13.677  0.00  0.00    +0.220 A 
ATOM      9  N   UNL     1      17.173  33.487  14.771  0.00  0.00    -0.283 N 
ATOM     36  H   UNL     1      18.151  33.202  14.811  0.00  0.00    +0.155 HD
ATOM     37  N   UNL     1      16.986  32.425  12.688  0.00  0.00    -0.214 NA
BRANCH   4   3
ATOM      1  C   UNL     1      18.149  31.023   8.272  0.00  0.00    +0.020 A 
ATOM      2  C   UNL     1      17.407  31.811   9.229  0.00  0.00    +0.013 A 
ATOM      3  C   UNL     1      17.060  31.266  10.535  0.00  0.00    +0.019 A 
ATOM     38  C   UNL     1      17.484  29.909  10.845  0.00  0.00    +0.120 A 
ATOM     39  N   UNL     1      18.196  29.172   9.904  0.00  0.00    -0.263 NA
ATOM     40  C   UNL     1      18.534  29.686   8.643  0.00  0.00    +0.111 A 
ENDBRANCH   4   3
ENDBRANCH  10   9
BRANCH  12  13
ATOM     13  N   UNL     1      16.506  37.885  16.999  0.00  0.00    -0.281 N 
ATOM     14  C   UNL     1      17.655  38.570  17.357  0.00  0.00    +0.248 C 
ATOM     30  O   UNL     1      18.636  38.053  17.871  0.00  0.00    -0.270 OA
ATOM     31  H   UNL     1      15.696  38.460  16.765  0.00  0.00    +0.155 HD
BRANCH  14  15
ATOM     15  C   UNL     1      17.719  40.045  17.124  0.00  0.00    +0.037 A 
ATOM     16  C   UNL     1      18.948  40.687  16.651  0.00  0.00    +0.013 A 
ATOM     17  C   UNL     1      18.988  42.114  16.450  0.00  0.00    +0.005 A 
ATOM     18  C   UNL     1      17.792  42.909  16.722  0.00  0.00    -0.033 A 
ATOM     28  C   UNL     1      16.585  42.245  17.186  0.00  0.00    +0.005 A 
ATOM     29  C   UNL     1      16.543  40.847  17.384  0.00  0.00    +0.013 A 
BRANCH  18  19
ATOM     19  C   UNL     1      17.750  44.439  16.556  0.00  0.00    +0.119 C 
BRANCH  19  20
ATOM     20  N   UNL     1      16.432  45.054  16.218  0.00  0.00    -0.302 NA
ATOM     21  C   UNL     1      16.218  45.159  14.705  0.00  0.00    +0.066 C 
ATOM     22  C   UNL     1      14.825  45.783  14.369  0.00  0.00    -0.064 C 
ATOM     23  N   UNL     1      14.714  47.159  15.028  0.00  0.00    +0.379 N 
ATOM     24  C   UNL     1      13.428  47.774  14.666  0.00  0.00    -0.096 C 
ATOM     25  H   UNL     1      15.525  47.800  14.611  0.00  0.00    -0.082 HD
ATOM     26  C   UNL     1      14.928  47.065  16.532  0.00  0.00    -0.064 C 
ATOM     27  C   UNL     1      16.302  46.416  16.855  0.00  0.00    +0.066 C 
ENDBRANCH  19  20
ENDBRANCH  18  19
ENDBRANCH  14  15
ENDBRANCH  12  13
TORSDOF 6
ENDMDL
