MODEL 1
REMARK VINA RESULT:      -7.2      0.000      0.000
REMARK  Name = C:\Users\Docking\Desktop\test protocol\1iep_ligandH.pdb
REMARK  8 active torsions:
REMARK  status: ('A' for Active; 'I' for Inactive)
REMARK    1  A    between atoms: _5  and  _11
REMARK    2  A    between atoms: _19  and  _21
REMARK    3  A    between atoms: _22  and  _66
REMARK    4  A    between atoms: _27  and  _30
REMARK    5  A    between atoms: _32  and  _33
REMARK    6  A    between atoms: _38  and  _43
REMARK    7  A    between atoms: _43  and  _46
REMARK    8  A    between atoms: _53  and  _55
REMARK                            x       y       z     vdW  Elec       q    Type
REMARK                         _______ _______ _______ _____ _____    ______ ____
ROOT
ATOM     10  C   UNL     1       1.698   1.149  29.619  0.00  0.00    +0.038 A 
ATOM     11  C   UNL     1       0.374   0.734  29.324  0.00  0.00    +0.047 A 
ATOM     12  C   UNL     1      -0.151  -0.525  29.831  0.00  0.00    +0.035 A 
ATOM     32  C   UNL     1       0.699  -1.335  30.638  0.00  0.00    +0.024 A 
ATOM     33  C   UNL     1       2.048  -0.930  30.947  0.00  0.00    +0.007 A 
ATOM     34  C   UNL     1       2.572   0.310  30.448  0.00  0.00    -0.029 A 
ATOM     35  C   UNL     1       4.027   0.691  30.805  0.00  0.00    +0.045 C 
ENDROOT
BRANCH  10   9
ATOM      4  C   UNL     1       1.995   5.938  29.729  0.00  0.00    +0.077 A 
ATOM      5  C   UNL     1       1.157   6.023  30.890  0.00  0.00    +0.048 A 
ATOM      6  C   UNL     1       0.664   4.811  31.424  0.00  0.00    +0.116 A 
ATOM      7  N   UNL     1       0.991   3.610  30.833  0.00  0.00    -0.223 NA
ATOM      8  C   UNL     1       1.801   3.564  29.713  0.00  0.00    +0.220 A 
ATOM      9  N   UNL     1       2.150   2.367  29.107  0.00  0.00    -0.283 N 
ATOM     36  H   UNL     1       2.743   2.375  28.278  0.00  0.00    +0.155 HD
ATOM     37  N   UNL     1       2.283   4.707  29.183  0.00  0.00    -0.214 NA
BRANCH   4   3
ATOM      1  C   UNL     1       2.895   9.616  28.750  0.00  0.00    +0.020 A 
ATOM      2  C   UNL     1       2.287   8.501  29.437  0.00  0.00    +0.013 A 
ATOM      3  C   UNL     1       2.596   7.130  29.050  0.00  0.00    +0.019 A 
ATOM     38  C   UNL     1       3.532   6.921  27.956  0.00  0.00    +0.120 A 
ATOM     39  N   UNL     1       4.101   8.015  27.311  0.00  0.00    -0.263 NA
ATOM     40  C   UNL     1       3.810   9.338  27.674  0.00  0.00    +0.111 A 
ENDBRANCH   4   3
ENDBRANCH  10   9
BRANCH  12  13
ATOM     13  N   UNL     1      -1.484  -1.002  29.558  0.00  0.00    -0.281 N 
ATOM     14  C   UNL     1      -1.955  -1.598  28.399  0.00  0.00    +0.248 C 
ATOM     30  O   UNL     1      -1.350  -1.617  27.337  0.00  0.00    -0.270 OA
ATOM     31  H   UNL     1      -2.163  -0.886  30.310  0.00  0.00    +0.155 HD
BRANCH  14  15
ATOM     15  C   UNL     1      -3.297  -2.254  28.418  0.00  0.00    +0.037 A 
ATOM     16  C   UNL     1      -3.533  -3.523  27.726  0.00  0.00    +0.013 A 
ATOM     17  C   UNL     1      -4.842  -4.127  27.746  0.00  0.00    +0.005 A 
ATOM     18  C   UNL     1      -5.926  -3.461  28.464  0.00  0.00    -0.033 A 
ATOM     28  C   UNL     1      -5.663  -2.205  29.147  0.00  0.00    +0.005 A 
ATOM     29  C   UNL     1      -4.382  -1.610  29.128  0.00  0.00    +0.013 A 
BRANCH  18  19
ATOM     19  C   UNL     1      -7.359  -4.021  28.521  0.00  0.00    +0.119 C 
BRANCH  19  20
ATOM     20  N   UNL     1      -8.439  -3.201  27.895  0.00  0.00    -0.302 NA
ATOM     21  C   UNL     1      -9.812  -3.867  28.022  0.00  0.00    +0.066 C 
ATOM     22  C   UNL     1     -10.934  -2.985  27.382  0.00  0.00    -0.064 C 
ATOM     23  N   UNL     1     -10.594  -2.718  25.915  0.00  0.00    +0.379 N 
ATOM     24  C   UNL     1     -11.675  -1.937  25.295  0.00  0.00    -0.096 C 
ATOM     25  H   UNL     1     -10.546  -3.703  25.394  0.00  0.00    -0.082 HD
ATOM     26  C   UNL     1      -9.229  -2.058  25.780  0.00  0.00    -0.064 C 
ATOM     27  C   UNL     1      -8.126  -2.929  26.445  0.00  0.00    +0.066 C 
ENDBRANCH  19  20
ENDBRANCH  18  19
ENDBRANCH  14  15
ENDBRANCH  12  13
TORSDOF 6
ENDMDL
MODEL 2
REMARK VINA RESULT:      -7.1      6.777     12.153
REMARK  Name = C:\Users\Docking\Desktop\test protocol\1iep_ligandH.pdb
REMARK  8 active torsions:
REMARK  status: ('A' for Active; 'I' for Inactive)
REMARK    1  A    between atoms: _5  and  _11
REMARK    2  A    between atoms: _19  and  _21
REMARK    3  A    between atoms: _22  and  _66
REMARK    4  A    between atoms: _27  and  _30
REMARK    5  A    between atoms: _32  and  _33
REMARK    6  A    between atoms: _38  and  _43
REMARK    7  A    between atoms: _43  and  _46
REMARK    8  A    between atoms: _53  and  _55
REMARK                            x       y       z     vdW  Elec       q    Type
REMARK                         _______ _______ _______ _____ _____    ______ ____
ROOT
ATOM     10  C   UNL     1      -1.987  -7.330  28.143  0.00  0.00    +0.038 A 
ATOM     11  C   UNL     1      -2.739  -6.137  27.996  0.00  0.00    +0.047 A 
ATOM     12  C   UNL     1      -2.854  -5.181  29.086  0.00  0.00    +0.035 A 
ATOM     32  C   UNL     1      -2.187  -5.471  30.312  0.00  0.00    +0.024 A 
ATOM     33  C   UNL     1      -1.419  -6.680  30.479  0.00  0.00    +0.007 A 
ATOM     34  C   UNL     1      -1.304  -7.628  29.408  0.00  0.00    -0.029 A 
ATOM     35  C   UNL     1      -0.473  -8.910  29.645  0.00  0.00    +0.045 C 
ENDROOT
BRANCH  10   9
ATOM      4  C   UNL     1      -3.694 -10.972  25.524  0.00  0.00    +0.077 A 
ATOM      5  C   UNL     1      -4.820 -11.148  26.395  0.00  0.00    +0.048 A 
ATOM      6  C   UNL     1      -4.919 -10.286  27.510  0.00  0.00    +0.116 A 
ATOM      7  N   UNL     1      -3.958  -9.323  27.727  0.00  0.00    -0.223 NA
ATOM      8  C   UNL     1      -2.884  -9.180  26.868  0.00  0.00    +0.220 A 
ATOM      9  N   UNL     1      -1.910  -8.213  27.063  0.00  0.00    -0.283 N 
ATOM     36  H   UNL     1      -1.129  -8.145  26.411  0.00  0.00    +0.155 HD
ATOM     37  N   UNL     1      -2.766  -9.992  25.797  0.00  0.00    -0.214 NA
BRANCH   4   3
ATOM      1  C   UNL     1      -4.027 -12.566  21.967  0.00  0.00    +0.020 A 
ATOM      2  C   UNL     1      -4.304 -11.743  23.121  0.00  0.00    +0.013 A 
ATOM      3  C   UNL     1      -3.452 -11.803  24.302  0.00  0.00    +0.019 A 
ATOM     38  C   UNL     1      -2.318 -12.714  24.283  0.00  0.00    +0.120 A 
ATOM     39  N   UNL     1      -2.076 -13.496  23.158  0.00  0.00    -0.263 NA
ATOM     40  C   UNL     1      -2.890 -13.448  22.016  0.00  0.00    +0.111 A 
ENDBRANCH   4   3
ENDBRANCH  10   9
BRANCH  12  13
ATOM     13  N   UNL     1      -3.610  -3.956  28.998  0.00  0.00    -0.281 N 
ATOM     14  C   UNL     1      -3.133  -2.675  28.772  0.00  0.00    +0.248 C 
ATOM     30  O   UNL     1      -1.955  -2.357  28.823  0.00  0.00    -0.270 OA
ATOM     31  H   UNL     1      -4.619  -4.044  29.118  0.00  0.00    +0.155 HD
BRANCH  14  15
ATOM     15  C   UNL     1      -4.109  -1.587  28.457  0.00  0.00    +0.037 A 
ATOM     16  C   UNL     1      -5.491  -1.643  28.940  0.00  0.00    +0.013 A 
ATOM     17  C   UNL     1      -6.416  -0.589  28.607  0.00  0.00    +0.005 A 
ATOM     18  C   UNL     1      -5.960   0.532  27.789  0.00  0.00    -0.033 A 
ATOM     28  C   UNL     1      -4.582   0.565  27.328  0.00  0.00    +0.005 A 
ATOM     29  C   UNL     1      -3.673  -0.467  27.651  0.00  0.00    +0.013 A 
BRANCH  18  19
ATOM     19  C   UNL     1      -6.884   1.691  27.368  0.00  0.00    +0.119 C 
BRANCH  19  20
ATOM     20  N   UNL     1      -8.221   1.331  26.810  0.00  0.00    -0.302 NA
ATOM     21  C   UNL     1      -8.159   0.075  25.935  0.00  0.00    +0.066 C 
ATOM     22  C   UNL     1      -9.571  -0.300  25.377  0.00  0.00    -0.064 C 
ATOM     23  N   UNL     1     -10.135   0.883  24.588  0.00  0.00    +0.379 N 
ATOM     24  C   UNL     1     -11.437   0.513  24.014  0.00  0.00    -0.096 C 
ATOM     25  H   UNL     1      -9.438   1.089  23.743  0.00  0.00    -0.082 HD
ATOM     26  C   UNL     1     -10.198   2.136  25.450  0.00  0.00    -0.064 C 
ATOM     27  C   UNL     1      -8.796   2.483  26.023  0.00  0.00    +0.066 C 
ENDBRANCH  19  20
ENDBRANCH  18  19
ENDBRANCH  14  15
ENDBRANCH  12  13
TORSDOF 6
ENDMDL
MODEL 3
REMARK VINA RESULT:      -7.0      6.212      8.864
REMARK  Name = C:\Users\Docking\Desktop\test protocol\1iep_ligandH.pdb
REMARK  8 active torsions:
REMARK  status: ('A' for Active; 'I' for Inactive)
REMARK    1  A    between atoms: _5  and  _11
REMARK    2  A    between atoms: _19  and  _21
REMARK    3  A    between atoms: _22  and  _66
REMARK    4  A    between atoms: _27  and  _30
REMARK    5  A    between atoms: _32  and  _33
REMARK    6  A    between atoms: _38  and  _43
REMARK    7  A    between atoms: _43  and  _46
REMARK    8  A    between atoms: _53  and  _55
REMARK                            x       y       z     vdW  Elec       q    Type
REMARK                         _______ _______ _______ _____ _____    ______ ____
ROOT
ATOM     10  C   UNL     1       0.644   2.987  29.820  0.00  0.00    +0.038 A 
ATOM     11  C   UNL     1       1.560   1.906  29.749  0.00  0.00    +0.047 A 
ATOM     12  C   UNL     1       1.307   0.658  30.453  0.00  0.00    +0.035 A 
ATOM     32  C   UNL     1       0.109   0.545  31.217  0.00  0.00    +0.024 A 
ATOM     33  C   UNL     1      -0.832   1.634  31.301  0.00  0.00    +0.007 A 
ATOM     34  C   UNL     1      -0.586   2.868  30.611  0.00  0.00    -0.029 A 
ATOM     35  C   UNL     1      -1.627   4.004  30.742  0.00  0.00    +0.045 C 
ENDROOT
BRANCH  10   9
ATOM      4  C   UNL     1       2.830   7.243  29.432  0.00  0.00    +0.077 A 
ATOM      5  C   UNL     1       3.416   7.127  30.737  0.00  0.00    +0.048 A 
ATOM      6  C   UNL     1       3.124   5.960  31.478  0.00  0.00    +0.116 A 
ATOM      7  N   UNL     1       2.306   4.987  30.944  0.00  0.00    -0.223 NA
ATOM      8  C   UNL     1       1.756   5.131  29.684  0.00  0.00    +0.220 A 
ATOM      9  N   UNL     1       0.937   4.162  29.125  0.00  0.00    -0.283 N 
ATOM     36  H   UNL     1       0.545   4.309  28.195  0.00  0.00    +0.155 HD
ATOM     37  N   UNL     1       2.018   6.237  28.957  0.00  0.00    -0.214 NA
BRANCH   4   3
ATOM      1  C   UNL     1       3.582   9.439  26.284  0.00  0.00    +0.020 A 
ATOM      2  C   UNL     1       3.384   8.274  27.116  0.00  0.00    +0.013 A 
ATOM      3  C   UNL     1       3.046   8.415  28.526  0.00  0.00    +0.019 A 
ATOM     38  C   UNL     1       2.915   9.759  29.069  0.00  0.00    +0.120 A 
ATOM     39  N   UNL     1       3.113  10.862  28.244  0.00  0.00    -0.263 NA
ATOM     40  C   UNL     1       3.440  10.738  26.885  0.00  0.00    +0.111 A 
ENDBRANCH   4   3
ENDBRANCH  10   9
BRANCH  12  13
ATOM     13  N   UNL     1       2.204  -0.470  30.424  0.00  0.00    -0.281 N 
ATOM     14  C   UNL     1       2.945  -0.996  31.470  0.00  0.00    +0.248 C 
ATOM     30  O   UNL     1       3.113  -0.440  32.546  0.00  0.00    -0.270 OA
ATOM     31  H   UNL     1       2.305  -0.939  29.524  0.00  0.00    +0.155 HD
BRANCH  14  15
ATOM     15  C   UNL     1       3.606  -2.324  31.290  0.00  0.00    +0.037 A 
ATOM     16  C   UNL     1       2.820  -3.548  31.120  0.00  0.00    +0.013 A 
ATOM     17  C   UNL     1       3.483  -4.818  30.965  0.00  0.00    +0.005 A 
ATOM     18  C   UNL     1       4.943  -4.870  30.980  0.00  0.00    -0.033 A 
ATOM     28  C   UNL     1       5.699  -3.640  31.146  0.00  0.00    +0.005 A 
ATOM     29  C   UNL     1       5.052  -2.393  31.298  0.00  0.00    +0.013 A 
BRANCH  18  19
ATOM     19  C   UNL     1       5.735  -6.185  30.843  0.00  0.00    +0.119 C 
BRANCH  19  20
ATOM     20  N   UNL     1       6.109  -6.617  29.464  0.00  0.00    -0.302 NA
ATOM     21  C   UNL     1       6.940  -5.556  28.735  0.00  0.00    +0.066 C 
ATOM     22  C   UNL     1       7.343  -6.034  27.302  0.00  0.00    -0.064 C 
ATOM     23  N   UNL     1       6.081  -6.373  26.507  0.00  0.00    +0.379 N 
ATOM     24  C   UNL     1       6.452  -6.768  25.141  0.00  0.00    -0.096 C 
ATOM     25  H   UNL     1       5.466  -5.446  26.437  0.00  0.00    -0.082 HD
ATOM     26  C   UNL     1       5.247  -7.425  27.226  0.00  0.00    -0.064 C 
ATOM     27  C   UNL     1       4.878  -6.953  28.660  0.00  0.00    +0.066 C 
ENDBRANCH  19  20
ENDBRANCH  18  19
ENDBRANCH  14  15
ENDBRANCH  12  13
TORSDOF 6
ENDMDL
MODEL 4
REMARK VINA RESULT:      -7.0     10.027     14.589
REMARK  Name = C:\Users\Docking\Desktop\test protocol\1iep_ligandH.pdb
REMARK  8 active torsions:
REMARK  status: ('A' for Active; 'I' for Inactive)
REMARK    1  A    between atoms: _5  and  _11
REMARK    2  A    between atoms: _19  and  _21
REMARK    3  A    between atoms: _22  and  _66
REMARK    4  A    between atoms: _27  and  _30
REMARK    5  A    between atoms: _32  and  _33
REMARK    6  A    between atoms: _38  and  _43
REMARK    7  A    between atoms: _43  and  _46
REMARK    8  A    between atoms: _53  and  _55
REMARK                            x       y       z     vdW  Elec       q    Type
REMARK                         _______ _______ _______ _____ _____    ______ ____
ROOT
ATOM     10  C   UNL     1       6.323   5.080  29.871  0.00  0.00    +0.038 A 
ATOM     11  C   UNL     1       7.412   4.763  29.021  0.00  0.00    +0.047 A 
ATOM     12  C   UNL     1       7.822   3.384  28.805  0.00  0.00    +0.035 A 
ATOM     32  C   UNL     1       7.097   2.352  29.470  0.00  0.00    +0.024 A 
ATOM     33  C   UNL     1       5.988   2.657  30.339  0.00  0.00    +0.007 A 
ATOM     34  C   UNL     1       5.581   4.015  30.557  0.00  0.00    -0.029 A 
ATOM     35  C   UNL     1       4.388   4.284  31.504  0.00  0.00    +0.045 C 
ENDROOT
BRANCH  10   9
ATOM      4  C   UNL     1       3.914   9.024  28.575  0.00  0.00    +0.077 A 
ATOM      5  C   UNL     1       3.324   8.364  27.446  0.00  0.00    +0.048 A 
ATOM      6  C   UNL     1       3.672   7.012  27.229  0.00  0.00    +0.116 A 
ATOM      7  N   UNL     1       4.546   6.377  28.085  0.00  0.00    -0.223 NA
ATOM      8  C   UNL     1       5.098   7.043  29.164  0.00  0.00    +0.220 A 
ATOM      9  N   UNL     1       5.972   6.421  30.042  0.00  0.00    -0.283 N 
ATOM     36  H   UNL     1       6.364   6.949  30.822  0.00  0.00    +0.155 HD
ATOM     37  N   UNL     1       4.782   8.335  29.391  0.00  0.00    -0.214 NA
BRANCH   4   3
ATOM      1  C   UNL     1       2.867  12.788  28.389  0.00  0.00    +0.020 A 
ATOM      2  C   UNL     1       3.112  11.422  27.988  0.00  0.00    +0.013 A 
ATOM      3  C   UNL     1       3.642  10.451  28.937  0.00  0.00    +0.019 A 
ATOM     38  C   UNL     1       3.914  10.898  30.295  0.00  0.00    +0.120 A 
ATOM     39  N   UNL     1       3.669  12.220  30.652  0.00  0.00    -0.263 NA
ATOM     40  C   UNL     1       3.161  13.164  29.747  0.00  0.00    +0.111 A 
ENDBRANCH   4   3
ENDBRANCH  10   9
BRANCH  12  13
ATOM     13  N   UNL     1       8.926   3.002  27.960  0.00  0.00    -0.281 N 
ATOM     14  C   UNL     1      10.203   3.537  27.932  0.00  0.00    +0.248 C 
ATOM     30  O   UNL     1      10.528   4.577  28.487  0.00  0.00    -0.270 OA
ATOM     31  H   UNL     1       8.743   2.244  27.302  0.00  0.00    +0.155 HD
BRANCH  14  15
ATOM     15  C   UNL     1      11.269   2.823  27.166  0.00  0.00    +0.037 A 
ATOM     16  C   UNL     1      12.265   3.559  26.384  0.00  0.00    +0.013 A 
ATOM     17  C   UNL     1      13.273   2.845  25.640  0.00  0.00    +0.005 A 
ATOM     18  C   UNL     1      13.290   1.385  25.677  0.00  0.00    -0.033 A 
ATOM     28  C   UNL     1      12.293   0.680  26.466  0.00  0.00    +0.005 A 
ATOM     29  C   UNL     1      11.303   1.376  27.195  0.00  0.00    +0.013 A 
BRANCH  18  19
ATOM     19  C   UNL     1      14.315   0.540  24.898  0.00  0.00    +0.119 C 
BRANCH  19  20
ATOM     20  N   UNL     1      14.353  -0.925  25.185  0.00  0.00    -0.302 NA
ATOM     21  C   UNL     1      15.639  -1.336  25.907  0.00  0.00    +0.066 C 
ATOM     22  C   UNL     1      15.652  -2.868  26.219  0.00  0.00    -0.064 C 
ATOM     23  N   UNL     1      15.488  -3.652  24.916  0.00  0.00    +0.379 N 
ATOM     24  C   UNL     1      15.558  -5.093  25.199  0.00  0.00    -0.096 C 
ATOM     25  H   UNL     1      16.349  -3.395  24.256  0.00  0.00    -0.082 HD
ATOM     26  C   UNL     1      14.213  -3.248  24.190  0.00  0.00    -0.064 C 
ATOM     27  C   UNL     1      14.197  -1.719  23.911  0.00  0.00    +0.066 C 
ENDBRANCH  19  20
ENDBRANCH  18  19
ENDBRANCH  14  15
ENDBRANCH  12  13
TORSDOF 6
ENDMDL
MODEL 5
REMARK VINA RESULT:      -6.9     18.413     20.302
REMARK  Name = C:\Users\Docking\Desktop\test protocol\1iep_ligandH.pdb
REMARK  8 active torsions:
REMARK  status: ('A' for Active; 'I' for Inactive)
REMARK    1  A    between atoms: _5  and  _11
REMARK    2  A    between atoms: _19  and  _21
REMARK    3  A    between atoms: _22  and  _66
REMARK    4  A    between atoms: _27  and  _30
REMARK    5  A    between atoms: _32  and  _33
REMARK    6  A    between atoms: _38  and  _43
REMARK    7  A    between atoms: _43  and  _46
REMARK    8  A    between atoms: _53  and  _55
REMARK                            x       y       z     vdW  Elec       q    Type
REMARK                         _______ _______ _______ _____ _____    ______ ____
ROOT
ATOM     10  C   UNL     1      15.519  -3.175  17.678  0.00  0.00    +0.038 A 
ATOM     11  C   UNL     1      14.525  -4.084  18.122  0.00  0.00    +0.047 A 
ATOM     12  C   UNL     1      14.885  -5.331  18.779  0.00  0.00    +0.035 A 
ATOM     32  C   UNL     1      16.268  -5.618  18.971  0.00  0.00    +0.024 A 
ATOM     33  C   UNL     1      17.292  -4.706  18.525  0.00  0.00    +0.007 A 
ATOM     34  C   UNL     1      16.943  -3.476  17.874  0.00  0.00    -0.029 A 
ATOM     35  C   UNL     1      18.082  -2.538  17.412  0.00  0.00    +0.045 C 
ENDROOT
BRANCH  10   9
ATOM      4  C   UNL     1      14.438  -0.610  13.768  0.00  0.00    +0.077 A 
ATOM      5  C   UNL     1      14.723  -1.712  12.894  0.00  0.00    +0.048 A 
ATOM      6  C   UNL     1      15.153  -2.919  13.490  0.00  0.00    +0.116 A 
ATOM      7  N   UNL     1      15.283  -3.006  14.860  0.00  0.00    -0.223 NA
ATOM      8  C   UNL     1      15.001  -1.924  15.673  0.00  0.00    +0.220 A 
ATOM      9  N   UNL     1      15.117  -1.992  17.053  0.00  0.00    -0.283 N 
ATOM     36  H   UNL     1      14.907  -1.170  17.618  0.00  0.00    +0.155 HD
ATOM     37  N   UNL     1      14.590  -0.760  15.128  0.00  0.00    -0.214 NA
BRANCH   4   3
ATOM      1  C   UNL     1      12.708   2.893  13.582  0.00  0.00    +0.020 A 
ATOM      2  C   UNL     1      13.131   1.609  14.091  0.00  0.00    +0.013 A 
ATOM      3  C   UNL     1      13.971   0.729  13.289  0.00  0.00    +0.019 A 
ATOM     38  C   UNL     1      14.369   1.182  11.964  0.00  0.00    +0.120 A 
ATOM     39  N   UNL     1      13.946   2.423  11.500  0.00  0.00    -0.263 NA
ATOM     40  C   UNL     1      13.136   3.278  12.263  0.00  0.00    +0.111 A 
ENDBRANCH   4   3
ENDBRANCH  10   9
BRANCH  12  13
ATOM     13  N   UNL     1      13.920  -6.296  19.243  0.00  0.00    -0.281 N 
ATOM     14  C   UNL     1      12.834  -6.812  18.556  0.00  0.00    +0.248 C 
ATOM     30  O   UNL     1      12.401  -6.360  17.507  0.00  0.00    -0.270 OA
ATOM     31  H   UNL     1      14.054  -6.641  20.194  0.00  0.00    +0.155 HD
BRANCH  14  15
ATOM     15  C   UNL     1      12.115  -7.993  19.124  0.00  0.00    +0.037 A 
ATOM     16  C   UNL     1      12.504  -9.361  18.771  0.00  0.00    +0.013 A 
ATOM     17  C   UNL     1      11.783 -10.482  19.320  0.00  0.00    +0.005 A 
ATOM     18  C   UNL     1      10.666 -10.239  20.230  0.00  0.00    -0.033 A 
ATOM     28  C   UNL     1      10.305  -8.872  20.567  0.00  0.00    +0.005 A 
ATOM     29  C   UNL     1      11.008  -7.771  20.030  0.00  0.00    +0.013 A 
BRANCH  18  19
ATOM     19  C   UNL     1       9.827 -11.375  20.846  0.00  0.00    +0.119 C 
BRANCH  19  20
ATOM     20  N   UNL     1       8.936 -12.143  19.927  0.00  0.00    -0.302 NA
ATOM     21  C   UNL     1       7.523 -12.303  20.496  0.00  0.00    +0.066 C 
ATOM     22  C   UNL     1       6.598 -13.090  19.511  0.00  0.00    -0.064 C 
ATOM     23  N   UNL     1       7.220 -14.455  19.213  0.00  0.00    +0.379 N 
ATOM     24  C   UNL     1       6.325 -15.221  18.333  0.00  0.00    -0.096 C 
ATOM     25  H   UNL     1       7.301 -15.008  20.178  0.00  0.00    -0.082 HD
ATOM     26  C   UNL     1       8.626 -14.305  18.649  0.00  0.00    -0.064 C 
ATOM     27  C   UNL     1       9.529 -13.497  19.622  0.00  0.00    +0.066 C 
ENDBRANCH  19  20
ENDBRANCH  18  19
ENDBRANCH  14  15
ENDBRANCH  12  13
TORSDOF 6
ENDMDL
