MODEL 1
REMARK VINA RESULT:      -7.0      0.000      0.000
REMARK  Name = C:\Users\Docking\Desktop\test protocol\1iep_ligandH.pdb
REMARK  8 active torsions:
REMARK  status: ('A' for Active; 'I' for Inactive)
REMARK    1  A    between atoms: _5  and  _11
REMARK    2  A    between atoms: _19  and  _21
REMARK    3  A    between atoms: _22  and  _66
REMARK    4  A    between atoms: _27  and  _30
REMARK    5  A    between atoms: _32  and  _33
REMARK    6  A    between atoms: _38  and  _43
REMARK    7  A    between atoms: _43  and  _46
REMARK    8  A    between atoms: _53  and  _55
REMARK                            x       y       z     vdW  Elec       q    Type
REMARK                         _______ _______ _______ _____ _____    ______ ____
ROOT
ATOM     10  C   UNL     1     -14.007  -0.649 -53.137  0.00  0.00    +0.038 A 
ATOM     11  C   UNL     1     -13.223  -1.830 -53.069  0.00  0.00    +0.047 A 
ATOM     12  C   UNL     1     -11.978  -1.865 -52.318  0.00  0.00    +0.035 A 
ATOM     32  C   UNL     1     -11.562  -0.679 -51.645  0.00  0.00    +0.024 A 
ATOM     33  C   UNL     1     -12.345   0.530 -51.704  0.00  0.00    +0.007 A 
ATOM     34  C   UNL     1     -13.573   0.571 -52.446  0.00  0.00    -0.029 A 
ATOM     35  C   UNL     1     -14.369   1.896 -52.480  0.00  0.00    +0.045 C 
ENDROOT
BRANCH  10   9
ATOM      4  C   UNL     1     -16.529   0.206 -57.130  0.00  0.00    +0.077 A 
ATOM      5  C   UNL     1     -15.391   0.770 -57.798  0.00  0.00    +0.048 A 
ATOM      6  C   UNL     1     -14.178   0.828 -57.077  0.00  0.00    +0.116 A 
ATOM      7  N   UNL     1     -14.118   0.354 -55.784  0.00  0.00    -0.223 NA
ATOM      8  C   UNL     1     -15.234  -0.182 -55.169  0.00  0.00    +0.220 A 
ATOM      9  N   UNL     1     -15.194  -0.672 -53.872  0.00  0.00    -0.283 N 
ATOM     36  H   UNL     1     -16.041  -1.054 -53.451  0.00  0.00    +0.155 HD
ATOM     37  N   UNL     1     -16.405  -0.248 -55.836  0.00  0.00    -0.214 NA
BRANCH   4   3
ATOM      1  C   UNL     1     -19.625   0.713 -59.466  0.00  0.00    +0.020 A 
ATOM      2  C   UNL     1     -18.309   0.883 -58.894  0.00  0.00    +0.013 A 
ATOM      3  C   UNL     1     -17.880   0.072 -57.761  0.00  0.00    +0.019 A 
ATOM     38  C   UNL     1     -18.812  -0.910 -57.229  0.00  0.00    +0.120 A 
ATOM     39  N   UNL     1     -20.073  -1.050 -57.800  0.00  0.00    -0.263 NA
ATOM     40  C   UNL     1     -20.498  -0.274 -58.889  0.00  0.00    +0.111 A 
ENDBRANCH   4   3
ENDBRANCH  10   9
BRANCH  12  13
ATOM     13  N   UNL     1     -11.137  -3.032 -52.220  0.00  0.00    -0.281 N 
ATOM     14  C   UNL     1      -9.917  -3.256 -52.836  0.00  0.00    +0.248 C 
ATOM     30  O   UNL     1      -9.462  -2.569 -53.739  0.00  0.00    -0.270 OA
ATOM     31  H   UNL     1     -11.484  -3.784 -51.625  0.00  0.00    +0.155 HD
BRANCH  14  15
ATOM     15  C   UNL     1      -9.088  -4.419 -52.395  0.00  0.00    +0.037 A 
ATOM     16  C   UNL     1      -9.710  -5.666 -51.941  0.00  0.00    +0.013 A 
ATOM     17  C   UNL     1      -8.887  -6.767 -51.505  0.00  0.00    +0.005 A 
ATOM     18  C   UNL     1      -7.433  -6.625 -51.522  0.00  0.00    -0.033 A 
ATOM     28  C   UNL     1      -6.843  -5.379 -51.982  0.00  0.00    +0.005 A 
ATOM     29  C   UNL     1      -7.646  -4.298 -52.410  0.00  0.00    +0.013 A 
BRANCH  18  19
ATOM     19  C   UNL     1      -6.479  -7.740 -51.054  0.00  0.00    +0.119 C 
BRANCH  19  20
ATOM     20  N   UNL     1      -6.642  -8.237 -49.656  0.00  0.00    -0.302 NA
ATOM     21  C   UNL     1      -5.314  -8.251 -48.893  0.00  0.00    +0.066 C 
ATOM     22  C   UNL     1      -5.506  -8.752 -47.425  0.00  0.00    -0.064 C 
ATOM     23  N   UNL     1      -6.135 -10.146 -47.443  0.00  0.00    +0.379 N 
ATOM     24  C   UNL     1      -6.263 -10.644 -46.065  0.00  0.00    -0.096 C 
ATOM     25  H   UNL     1      -5.436 -10.825 -47.984  0.00  0.00    -0.082 HD
ATOM     26  C   UNL     1      -7.454 -10.142 -48.201  0.00  0.00    -0.064 C 
ATOM     27  C   UNL     1      -7.257  -9.615 -49.650  0.00  0.00    +0.066 C 
ENDBRANCH  19  20
ENDBRANCH  18  19
ENDBRANCH  14  15
ENDBRANCH  12  13
TORSDOF 6
ENDMDL
MODEL 2
REMARK VINA RESULT:      -6.7     27.389     30.540
REMARK  Name = C:\Users\Docking\Desktop\test protocol\1iep_ligandH.pdb
REMARK  8 active torsions:
REMARK  status: ('A' for Active; 'I' for Inactive)
REMARK    1  A    between atoms: _5  and  _11
REMARK    2  A    between atoms: _19  and  _21
REMARK    3  A    between atoms: _22  and  _66
REMARK    4  A    between atoms: _27  and  _30
REMARK    5  A    between atoms: _32  and  _33
REMARK    6  A    between atoms: _38  and  _43
REMARK    7  A    between atoms: _43  and  _46
REMARK    8  A    between atoms: _53  and  _55
REMARK                            x       y       z     vdW  Elec       q    Type
REMARK                         _______ _______ _______ _____ _____    ______ ____
ROOT
ATOM     10  C   UNL     1      -4.311 -18.407 -74.589  0.00  0.00    +0.038 A 
ATOM     11  C   UNL     1      -4.731 -17.444 -75.542  0.00  0.00    +0.047 A 
ATOM     12  C   UNL     1      -3.882 -16.318 -75.899  0.00  0.00    +0.035 A 
ATOM     32  C   UNL     1      -2.609 -16.206 -75.268  0.00  0.00    +0.024 A 
ATOM     33  C   UNL     1      -2.166 -17.175 -74.297  0.00  0.00    +0.007 A 
ATOM     34  C   UNL     1      -3.001 -18.286 -73.939  0.00  0.00    -0.029 A 
ATOM     35  C   UNL     1      -2.477 -19.290 -72.886  0.00  0.00    +0.045 C 
ENDROOT
BRANCH  10   9
ATOM      4  C   UNL     1      -6.137 -22.758 -75.464  0.00  0.00    +0.077 A 
ATOM      5  C   UNL     1      -5.338 -22.921 -76.645  0.00  0.00    +0.048 A 
ATOM      6  C   UNL     1      -4.475 -21.859 -76.996  0.00  0.00    +0.116 A 
ATOM      7  N   UNL     1      -4.423 -20.723 -76.217  0.00  0.00    -0.223 NA
ATOM      8  C   UNL     1      -5.209 -20.598 -75.086  0.00  0.00    +0.220 A 
ATOM      9  N   UNL     1      -5.167 -19.468 -74.284  0.00  0.00    -0.283 N 
ATOM     36  H   UNL     1      -5.767 -19.410 -73.462  0.00  0.00    +0.155 HD
ATOM     37  N   UNL     1      -6.042 -21.597 -74.730  0.00  0.00    -0.214 NA
BRANCH   4   3
ATOM      1  C   UNL     1      -7.682 -25.792 -73.538  0.00  0.00    +0.020 A 
ATOM      2  C   UNL     1      -6.719 -24.816 -73.992  0.00  0.00    +0.013 A 
ATOM      3  C   UNL     1      -7.094 -23.794 -74.961  0.00  0.00    +0.019 A 
ATOM     38  C   UNL     1      -8.463 -23.787 -75.454  0.00  0.00    +0.120 A 
ATOM     39  N   UNL     1      -9.369 -24.741 -75.000  0.00  0.00    -0.263 NA
ATOM     40  C   UNL     1      -9.018 -25.730 -74.069  0.00  0.00    +0.111 A 
ENDBRANCH   4   3
ENDBRANCH  10   9
BRANCH  12  13
ATOM     13  N   UNL     1      -4.259 -15.305 -76.854  0.00  0.00    -0.281 N 
ATOM     14  C   UNL     1      -4.834 -15.482 -78.101  0.00  0.00    +0.248 C 
ATOM     30  O   UNL     1      -4.917 -16.557 -78.678  0.00  0.00    -0.270 OA
ATOM     31  H   UNL     1      -4.079 -14.340 -76.576  0.00  0.00    +0.155 HD
BRANCH  14  15
ATOM     15  C   UNL     1      -5.384 -14.292 -78.818  0.00  0.00    +0.037 A 
ATOM     16  C   UNL     1      -5.911 -13.139 -78.084  0.00  0.00    +0.013 A 
ATOM     17  C   UNL     1      -6.452 -12.011 -78.800  0.00  0.00    +0.005 A 
ATOM     18  C   UNL     1      -6.467 -12.030 -80.261  0.00  0.00    -0.033 A 
ATOM     28  C   UNL     1      -5.933 -13.185 -80.964  0.00  0.00    +0.005 A 
ATOM     29  C   UNL     1      -5.403 -14.293 -80.266  0.00  0.00    +0.013 A 
BRANCH  18  19
ATOM     19  C   UNL     1      -7.043 -10.879 -81.107  0.00  0.00    +0.119 C 
BRANCH  19  20
ATOM     20  N   UNL     1      -7.575  -9.692 -80.374  0.00  0.00    -0.302 NA
ATOM     21  C   UNL     1      -8.877  -9.173 -80.989  0.00  0.00    +0.066 C 
ATOM     22  C   UNL     1      -9.431  -7.944 -80.196  0.00  0.00    -0.064 C 
ATOM     23  N   UNL     1      -8.371  -6.842 -80.163  0.00  0.00    +0.379 N 
ATOM     24  C   UNL     1      -8.910  -5.664 -79.468  0.00  0.00    -0.096 C 
ATOM     25  H   UNL     1      -8.158  -6.546 -81.216  0.00  0.00    -0.082 HD
ATOM     26  C   UNL     1      -7.072  -7.351 -79.555  0.00  0.00    -0.064 C 
ATOM     27  C   UNL     1      -6.545  -8.590 -80.332  0.00  0.00    +0.066 C 
ENDBRANCH  19  20
ENDBRANCH  18  19
ENDBRANCH  14  15
ENDBRANCH  12  13
TORSDOF 6
ENDMDL
MODEL 3
REMARK VINA RESULT:      -6.7      2.211      2.844
REMARK  Name = C:\Users\Docking\Desktop\test protocol\1iep_ligandH.pdb
REMARK  8 active torsions:
REMARK  status: ('A' for Active; 'I' for Inactive)
REMARK    1  A    between atoms: _5  and  _11
REMARK    2  A    between atoms: _19  and  _21
REMARK    3  A    between atoms: _22  and  _66
REMARK    4  A    between atoms: _27  and  _30
REMARK    5  A    between atoms: _32  and  _33
REMARK    6  A    between atoms: _38  and  _43
REMARK    7  A    between atoms: _43  and  _46
REMARK    8  A    between atoms: _53  and  _55
REMARK                            x       y       z     vdW  Elec       q    Type
REMARK                         _______ _______ _______ _____ _____    ______ ____
ROOT
ATOM     10  C   UNL     1     -12.214   0.268 -55.939  0.00  0.00    +0.038 A 
ATOM     11  C   UNL     1     -11.745  -0.833 -55.178  0.00  0.00    +0.047 A 
ATOM     12  C   UNL     1     -10.530  -0.737 -54.385  0.00  0.00    +0.035 A 
ATOM     32  C   UNL     1      -9.818   0.498 -54.387  0.00  0.00    +0.024 A 
ATOM     33  C   UNL     1     -10.280   1.627 -55.155  0.00  0.00    +0.007 A 
ATOM     34  C   UNL     1     -11.477   1.537 -55.942  0.00  0.00    -0.029 A 
ATOM     35  C   UNL     1     -11.922   2.778 -56.751  0.00  0.00    +0.045 C 
ENDROOT
BRANCH  10   9
ATOM      4  C   UNL     1     -16.993   0.386 -56.375  0.00  0.00    +0.077 A 
ATOM      5  C   UNL     1     -17.169   0.748 -54.998  0.00  0.00    +0.048 A 
ATOM      6  C   UNL     1     -16.004   0.887 -54.210  0.00  0.00    +0.116 A 
ATOM      7  N   UNL     1     -14.762   0.677 -54.768  0.00  0.00    -0.223 NA
ATOM      8  C   UNL     1     -14.627   0.328 -56.099  0.00  0.00    +0.220 A 
ATOM      9  N   UNL     1     -13.387   0.120 -56.683  0.00  0.00    -0.283 N 
ATOM     36  H   UNL     1     -13.331  -0.145 -57.666  0.00  0.00    +0.155 HD
ATOM     37  N   UNL     1     -15.724   0.187 -56.872  0.00  0.00    -0.214 NA
BRANCH   4   3
ATOM      1  C   UNL     1     -20.084  -1.085 -58.268  0.00  0.00    +0.020 A 
ATOM      2  C   UNL     1     -19.003  -0.958 -57.317  0.00  0.00    +0.013 A 
ATOM      3  C   UNL     1     -18.126   0.205 -57.337  0.00  0.00    +0.019 A 
ATOM     38  C   UNL     1     -18.371   1.232 -58.339  0.00  0.00    +0.120 A 
ATOM     39  N   UNL     1     -19.418   1.082 -59.243  0.00  0.00    -0.263 NA
ATOM     40  C   UNL     1     -20.268  -0.034 -59.234  0.00  0.00    +0.111 A 
ENDBRANCH   4   3
ENDBRANCH  10   9
BRANCH  12  13
ATOM     13  N   UNL     1     -10.000  -1.824 -53.599  0.00  0.00    -0.281 N 
ATOM     14  C   UNL     1     -10.491  -2.330 -52.406  0.00  0.00    +0.248 C 
ATOM     30  O   UNL     1     -11.341  -1.782 -51.721  0.00  0.00    -0.270 OA
ATOM     31  H   UNL     1      -9.163  -2.275 -53.967  0.00  0.00    +0.155 HD
BRANCH  14  15
ATOM     15  C   UNL     1      -9.947  -3.625 -51.894  0.00  0.00    +0.037 A 
ATOM     16  C   UNL     1      -9.245  -3.699 -50.610  0.00  0.00    +0.013 A 
ATOM     17  C   UNL     1      -8.716  -4.958 -50.147  0.00  0.00    +0.005 A 
ATOM     18  C   UNL     1      -8.888  -6.153 -50.969  0.00  0.00    -0.033 A 
ATOM     28  C   UNL     1      -9.593  -6.051 -52.236  0.00  0.00    +0.005 A 
ATOM     29  C   UNL     1     -10.112  -4.820 -52.694  0.00  0.00    +0.013 A 
BRANCH  18  19
ATOM     19  C   UNL     1      -8.338  -7.533 -50.564  0.00  0.00    +0.119 C 
BRANCH  19  20
ATOM     20  N   UNL     1      -8.897  -8.156 -49.327  0.00  0.00    -0.302 NA
ATOM     21  C   UNL     1      -8.126  -9.414 -48.919  0.00  0.00    +0.066 C 
ATOM     22  C   UNL     1      -8.711 -10.040 -47.610  0.00  0.00    -0.064 C 
ATOM     23  N   UNL     1     -10.193 -10.357 -47.818  0.00  0.00    +0.379 N 
ATOM     24  C   UNL     1     -10.731 -10.999 -46.610  0.00  0.00    -0.096 C 
ATOM     25  H   UNL     1     -10.268 -11.091 -48.653  0.00  0.00    -0.082 HD
ATOM     26  C   UNL     1     -10.966  -9.111 -48.227  0.00  0.00    -0.064 C 
ATOM     27  C   UNL     1     -10.359  -8.481 -49.511  0.00  0.00    +0.066 C 
ENDBRANCH  19  20
ENDBRANCH  18  19
ENDBRANCH  14  15
ENDBRANCH  12  13
TORSDOF 6
ENDMDL
MODEL 4
REMARK VINA RESULT:      -6.7     18.888     24.810
REMARK  Name = C:\Users\Docking\Desktop\test protocol\1iep_ligandH.pdb
REMARK  8 active torsions:
REMARK  status: ('A' for Active; 'I' for Inactive)
REMARK    1  A    between atoms: _5  and  _11
REMARK    2  A    between atoms: _19  and  _21
REMARK    3  A    between atoms: _22  and  _66
REMARK    4  A    between atoms: _27  and  _30
REMARK    5  A    between atoms: _32  and  _33
REMARK    6  A    between atoms: _38  and  _43
REMARK    7  A    between atoms: _43  and  _46
REMARK    8  A    between atoms: _53  and  _55
REMARK                            x       y       z     vdW  Elec       q    Type
REMARK                         _______ _______ _______ _____ _____    ______ ____
ROOT
ATOM     10  C   UNL     1     -33.746 -11.612 -54.969  0.00  0.00    +0.038 A 
ATOM     11  C   UNL     1     -33.128 -10.794 -55.948  0.00  0.00    +0.047 A 
ATOM     12  C   UNL     1     -33.113  -9.345 -55.818  0.00  0.00    +0.035 A 
ATOM     32  C   UNL     1     -33.735  -8.763 -54.675  0.00  0.00    +0.024 A 
ATOM     33  C   UNL     1     -34.370  -9.581 -53.670  0.00  0.00    +0.007 A 
ATOM     34  C   UNL     1     -34.390 -11.010 -53.795  0.00  0.00    -0.029 A 
ATOM     35  C   UNL     1     -35.090 -11.836 -52.691  0.00  0.00    +0.045 C 
ENDROOT
BRANCH  10   9
ATOM      4  C   UNL     1     -35.579 -15.672 -56.757  0.00  0.00    +0.077 A 
ATOM      5  C   UNL     1     -36.675 -14.977 -57.370  0.00  0.00    +0.048 A 
ATOM      6  C   UNL     1     -36.734 -13.577 -57.195  0.00  0.00    +0.116 A 
ATOM      7  N   UNL     1     -35.764 -12.929 -56.461  0.00  0.00    -0.223 NA
ATOM      8  C   UNL     1     -34.722 -13.629 -55.881  0.00  0.00    +0.220 A 
ATOM      9  N   UNL     1     -33.731 -12.998 -55.145  0.00  0.00    -0.283 N 
ATOM     36  H   UNL     1     -32.983 -13.551 -54.728  0.00  0.00    +0.155 HD
ATOM     37  N   UNL     1     -34.644 -14.968 -56.032  0.00  0.00    -0.214 NA
BRANCH   4   3
ATOM      1  C   UNL     1     -35.530 -19.355 -58.075  0.00  0.00    +0.020 A 
ATOM      2  C   UNL     1     -35.747 -17.927 -58.032  0.00  0.00    +0.013 A 
ATOM      3  C   UNL     1     -35.377 -17.152 -56.854  0.00  0.00    +0.019 A 
ATOM     38  C   UNL     1     -34.785 -17.859 -55.728  0.00  0.00    +0.120 A 
ATOM     39  N   UNL     1     -34.590 -19.234 -55.797  0.00  0.00    -0.263 NA
ATOM     40  C   UNL     1     -34.943 -19.990 -56.925  0.00  0.00    +0.111 A 
ENDBRANCH   4   3
ENDBRANCH  10   9
BRANCH  12  13
ATOM     13  N   UNL     1     -32.507  -8.462 -56.783  0.00  0.00    -0.281 N 
ATOM     14  C   UNL     1     -33.141  -7.636 -57.697  0.00  0.00    +0.248 C 
ATOM     30  O   UNL     1     -34.331  -7.691 -57.969  0.00  0.00    -0.270 OA
ATOM     31  H   UNL     1     -31.487  -8.444 -56.795  0.00  0.00    +0.155 HD
BRANCH  14  15
ATOM     15  C   UNL     1     -32.333  -6.611 -58.425  0.00  0.00    +0.037 A 
ATOM     16  C   UNL     1     -31.298  -7.000 -59.386  0.00  0.00    +0.013 A 
ATOM     17  C   UNL     1     -30.521  -5.991 -60.061  0.00  0.00    +0.005 A 
ATOM     18  C   UNL     1     -30.779  -4.581 -59.779  0.00  0.00    -0.033 A 
ATOM     28  C   UNL     1     -31.816  -4.223 -58.826  0.00  0.00    +0.005 A 
ATOM     29  C   UNL     1     -32.578  -5.209 -58.161  0.00  0.00    +0.013 A 
BRANCH  18  19
ATOM     19  C   UNL     1     -29.985  -3.438 -60.438  0.00  0.00    +0.119 C 
BRANCH  19  20
ATOM     20  N   UNL     1     -29.869  -2.158 -59.676  0.00  0.00    -0.302 NA
ATOM     21  C   UNL     1     -29.710  -0.950 -60.603  0.00  0.00    +0.066 C 
ATOM     22  C   UNL     1     -29.613   0.382 -59.790  0.00  0.00    -0.064 C 
ATOM     23  N   UNL     1     -28.442   0.294 -58.810  0.00  0.00    +0.379 N 
ATOM     24  C   UNL     1     -28.312   1.566 -58.085  0.00  0.00    -0.096 C 
ATOM     25  H   UNL     1     -27.512   0.147 -59.407  0.00  0.00    -0.082 HD
ATOM     26  C   UNL     1     -28.590  -0.907 -57.886  0.00  0.00    -0.064 C 
ATOM     27  C   UNL     1     -28.716  -2.222 -58.705  0.00  0.00    +0.066 C 
ENDBRANCH  19  20
ENDBRANCH  18  19
ENDBRANCH  14  15
ENDBRANCH  12  13
TORSDOF 6
ENDMDL
MODEL 5
REMARK VINA RESULT:      -6.6     27.613     30.714
REMARK  Name = C:\Users\Docking\Desktop\test protocol\1iep_ligandH.pdb
REMARK  8 active torsions:
REMARK  status: ('A' for Active; 'I' for Inactive)
REMARK    1  A    between atoms: _5  and  _11
REMARK    2  A    between atoms: _19  and  _21
REMARK    3  A    between atoms: _22  and  _66
REMARK    4  A    between atoms: _27  and  _30
REMARK    5  A    between atoms: _32  and  _33
REMARK    6  A    between atoms: _38  and  _43
REMARK    7  A    between atoms: _43  and  _46
REMARK    8  A    between atoms: _53  and  _55
REMARK                            x       y       z     vdW  Elec       q    Type
REMARK                         _______ _______ _______ _____ _____    ______ ____
ROOT
ATOM     10  C   UNL     1      -3.482 -18.710 -73.545  0.00  0.00    +0.038 A 
ATOM     11  C   UNL     1      -4.340 -19.833 -73.665  0.00  0.00    +0.047 A 
ATOM     12  C   UNL     1      -5.166 -20.026 -74.847  0.00  0.00    +0.035 A 
ATOM     32  C   UNL     1      -5.091 -19.057 -75.889  0.00  0.00    +0.024 A 
ATOM     33  C   UNL     1      -4.225 -17.909 -75.784  0.00  0.00    +0.007 A 
ATOM     34  C   UNL     1      -3.410 -17.712 -74.619  0.00  0.00    -0.029 A 
ATOM     35  C   UNL     1      -2.505 -16.459 -74.557  0.00  0.00    +0.045 C 
ENDROOT
BRANCH  10   9
ATOM      4  C   UNL     1       0.591 -19.312 -71.079  0.00  0.00    +0.077 A 
ATOM      5  C   UNL     1       1.229 -19.977 -72.179  0.00  0.00    +0.048 A 
ATOM      6  C   UNL     1       0.471 -20.151 -73.359  0.00  0.00    +0.116 A 
ATOM      7  N   UNL     1      -0.826 -19.689 -73.423  0.00  0.00    -0.223 NA
ATOM      8  C   UNL     1      -1.411 -19.054 -72.343  0.00  0.00    +0.220 A 
ATOM      9  N   UNL     1      -2.711 -18.575 -72.389  0.00  0.00    -0.283 N 
ATOM     36  H   UNL     1      -3.109 -18.118 -71.568  0.00  0.00    +0.155 HD
ATOM     37  N   UNL     1      -0.709 -18.877 -71.205  0.00  0.00    -0.214 NA
BRANCH   4   3
ATOM      1  C   UNL     1       3.254 -19.122 -68.220  0.00  0.00    +0.020 A 
ATOM      2  C   UNL     1       2.654 -19.396 -69.505  0.00  0.00    +0.013 A 
ATOM      3  C   UNL     1       1.262 -19.051 -69.766  0.00  0.00    +0.019 A 
ATOM     38  C   UNL     1       0.500 -18.424 -68.697  0.00  0.00    +0.120 A 
ATOM     39  N   UNL     1       1.104 -18.173 -67.469  0.00  0.00    -0.263 NA
ATOM     40  C   UNL     1       2.442 -18.502 -67.206  0.00  0.00    +0.111 A 
ENDBRANCH   4   3
ENDBRANCH  10   9
BRANCH  12  13
ATOM     13  N   UNL     1      -6.062 -21.143 -75.021  0.00  0.00    -0.281 N 
ATOM     14  C   UNL     1      -5.798 -22.360 -75.628  0.00  0.00    +0.248 C 
ATOM     30  O   UNL     1      -4.808 -22.594 -76.305  0.00  0.00    -0.270 OA
ATOM     31  H   UNL     1      -7.005 -21.020 -74.653  0.00  0.00    +0.155 HD
BRANCH  14  15
ATOM     15  C   UNL     1      -6.782 -23.473 -75.470  0.00  0.00    +0.037 A 
ATOM     16  C   UNL     1      -7.023 -24.433 -76.550  0.00  0.00    +0.013 A 
ATOM     17  C   UNL     1      -7.990 -25.488 -76.379  0.00  0.00    +0.005 A 
ATOM     18  C   UNL     1      -8.724 -25.589 -75.119  0.00  0.00    -0.033 A 
ATOM     28  C   UNL     1      -8.461 -24.626 -74.062  0.00  0.00    +0.005 A 
ATOM     29  C   UNL     1      -7.515 -23.590 -74.227  0.00  0.00    +0.013 A 
BRANCH  18  19
ATOM     19  C   UNL     1      -9.790 -26.669 -74.856  0.00  0.00    +0.119 C 
BRANCH  19  20
ATOM     20  N   UNL     1     -10.960 -26.715 -75.782  0.00  0.00    -0.302 NA
ATOM     21  C   UNL     1     -11.377 -25.317 -76.250  0.00  0.00    +0.066 C 
ATOM     22  C   UNL     1     -12.589 -25.385 -77.236  0.00  0.00    -0.064 C 
ATOM     23  N   UNL     1     -13.757 -26.100 -76.555  0.00  0.00    +0.379 N 
ATOM     24  C   UNL     1     -14.917 -26.114 -77.458  0.00  0.00    -0.096 C 
ATOM     25  H   UNL     1     -14.037 -25.506 -75.654  0.00  0.00    -0.082 HD
ATOM     26  C   UNL     1     -13.351 -27.489 -76.084  0.00  0.00    -0.064 C 
ATOM     27  C   UNL     1     -12.127 -27.412 -75.128  0.00  0.00    +0.066 C 
ENDBRANCH  19  20
ENDBRANCH  18  19
ENDBRANCH  14  15
ENDBRANCH  12  13
TORSDOF 6
ENDMDL
