MODEL 1
REMARK VINA RESULT:      -7.1      0.000      0.000
REMARK  Name = C:\Users\Docking\Desktop\test protocol\1iep_ligandH.pdb
REMARK  8 active torsions:
REMARK  status: ('A' for Active; 'I' for Inactive)
REMARK    1  A    between atoms: _5  and  _11
REMARK    2  A    between atoms: _19  and  _21
REMARK    3  A    between atoms: _22  and  _66
REMARK    4  A    between atoms: _27  and  _30
REMARK    5  A    between atoms: _32  and  _33
REMARK    6  A    between atoms: _38  and  _43
REMARK    7  A    between atoms: _43  and  _46
REMARK    8  A    between atoms: _53  and  _55
REMARK                            x       y       z     vdW  Elec       q    Type
REMARK                         _______ _______ _______ _____ _____    ______ ____
ROOT
ATOM     10  C   UNL     1      22.469   8.015  -2.978  0.00  0.00    +0.038 A 
ATOM     11  C   UNL     1      21.445   7.776  -2.027  0.00  0.00    +0.047 A 
ATOM     12  C   UNL     1      20.171   7.197  -2.422  0.00  0.00    +0.035 A 
ATOM     32  C   UNL     1      19.974   6.871  -3.796  0.00  0.00    +0.024 A 
ATOM     33  C   UNL     1      21.004   7.108  -4.777  0.00  0.00    +0.007 A 
ATOM     34  C   UNL     1      22.262   7.681  -4.393  0.00  0.00    -0.029 A 
ATOM     35  C   UNL     1      23.328   7.918  -5.488  0.00  0.00    +0.045 C 
ENDROOT
BRANCH  10   9
ATOM      4  C   UNL     1      25.187  11.766  -1.722  0.00  0.00    +0.077 A 
ATOM      5  C   UNL     1      24.125  12.697  -1.980  0.00  0.00    +0.048 A 
ATOM      6  C   UNL     1      22.898  12.170  -2.442  0.00  0.00    +0.116 A 
ATOM      7  N   UNL     1      22.755  10.812  -2.627  0.00  0.00    -0.223 NA
ATOM      8  C   UNL     1      23.799   9.942  -2.371  0.00  0.00    +0.220 A 
ATOM      9  N   UNL     1      23.674   8.572  -2.543  0.00  0.00    -0.283 N 
ATOM     36  H   UNL     1      24.470   7.965  -2.350  0.00  0.00    +0.155 HD
ATOM     37  N   UNL     1      24.981  10.421  -1.931  0.00  0.00    -0.214 NA
BRANCH   4   3
ATOM      1  C   UNL     1      28.624  11.791   0.145  0.00  0.00    +0.020 A 
ATOM      2  C   UNL     1      27.321  11.356  -0.302  0.00  0.00    +0.013 A 
ATOM      3  C   UNL     1      26.541  12.169  -1.227  0.00  0.00    +0.019 A 
ATOM     38  C   UNL     1      27.114  13.426  -1.685  0.00  0.00    +0.120 A 
ATOM     39  N   UNL     1      28.371  13.819  -1.237  0.00  0.00    -0.263 NA
ATOM     40  C   UNL     1      29.130  13.046  -0.345  0.00  0.00    +0.111 A 
ENDBRANCH   4   3
ENDBRANCH  10   9
BRANCH  12  13
ATOM     13  N   UNL     1      19.091   6.940  -1.502  0.00  0.00    -0.281 N 
ATOM     14  C   UNL     1      18.699   5.723  -0.969  0.00  0.00    +0.248 C 
ATOM     30  O   UNL     1      19.085   4.635  -1.370  0.00  0.00    -0.270 OA
ATOM     31  H   UNL     1      18.550   7.753  -1.209  0.00  0.00    +0.155 HD
BRANCH  14  15
ATOM     15  C   UNL     1      17.725   5.712   0.165  0.00  0.00    +0.037 A 
ATOM     16  C   UNL     1      16.816   6.838   0.397  0.00  0.00    +0.013 A 
ATOM     17  C   UNL     1      15.898   6.809   1.508  0.00  0.00    +0.005 A 
ATOM     18  C   UNL     1      15.885   5.649   2.396  0.00  0.00    -0.033 A 
ATOM     28  C   UNL     1      16.794   4.544   2.140  0.00  0.00    +0.005 A 
ATOM     29  C   UNL     1      17.695   4.569   1.052  0.00  0.00    +0.013 A 
BRANCH  18  19
ATOM     19  C   UNL     1      14.954   5.542   3.619  0.00  0.00    +0.119 C 
BRANCH  19  20
ATOM     20  N   UNL     1      15.591   5.583   4.969  0.00  0.00    -0.302 NA
ATOM     21  C   UNL     1      14.621   5.156   6.075  0.00  0.00    +0.066 C 
ATOM     22  C   UNL     1      15.311   5.183   7.478  0.00  0.00    -0.064 C 
ATOM     23  N   UNL     1      15.857   6.586   7.748  0.00  0.00    +0.379 N 
ATOM     24  C   UNL     1      16.454   6.630   9.090  0.00  0.00    -0.096 C 
ATOM     25  H   UNL     1      14.994   7.292   7.738  0.00  0.00    -0.082 HD
ATOM     26  C   UNL     1      16.820   7.020   6.651  0.00  0.00    -0.064 C 
ATOM     27  C   UNL     1      16.133   6.961   5.258  0.00  0.00    +0.066 C 
ENDBRANCH  19  20
ENDBRANCH  18  19
ENDBRANCH  14  15
ENDBRANCH  12  13
TORSDOF 6
ENDMDL
MODEL 2
REMARK VINA RESULT:      -7.1      7.167     11.803
REMARK  Name = C:\Users\Docking\Desktop\test protocol\1iep_ligandH.pdb
REMARK  8 active torsions:
REMARK  status: ('A' for Active; 'I' for Inactive)
REMARK    1  A    between atoms: _5  and  _11
REMARK    2  A    between atoms: _19  and  _21
REMARK    3  A    between atoms: _22  and  _66
REMARK    4  A    between atoms: _27  and  _30
REMARK    5  A    between atoms: _32  and  _33
REMARK    6  A    between atoms: _38  and  _43
REMARK    7  A    between atoms: _43  and  _46
REMARK    8  A    between atoms: _53  and  _55
REMARK                            x       y       z     vdW  Elec       q    Type
REMARK                         _______ _______ _______ _____ _____    ______ ____
ROOT
ATOM     10  C   UNL     1      15.864   6.012   0.075  0.00  0.00    +0.038 A 
ATOM     11  C   UNL     1      14.614   6.520  -0.363  0.00  0.00    +0.047 A 
ATOM     12  C   UNL     1      14.434   7.004  -1.723  0.00  0.00    +0.035 A 
ATOM     32  C   UNL     1      15.548   6.953  -2.611  0.00  0.00    +0.024 A 
ATOM     33  C   UNL     1      16.826   6.441  -2.182  0.00  0.00    +0.007 A 
ATOM     34  C   UNL     1      17.010   5.965  -0.841  0.00  0.00    -0.029 A 
ATOM     35  C   UNL     1      18.403   5.433  -0.433  0.00  0.00    +0.045 C 
ENDROOT
BRANCH  10   9
ATOM      4  C   UNL     1      16.239   6.785   4.798  0.00  0.00    +0.077 A 
ATOM      5  C   UNL     1      16.229   8.209   4.625  0.00  0.00    +0.048 A 
ATOM      6  C   UNL     1      16.134   8.702   3.304  0.00  0.00    +0.116 A 
ATOM      7  N   UNL     1      16.054   7.827   2.243  0.00  0.00    -0.223 NA
ATOM      8  C   UNL     1      16.067   6.459   2.444  0.00  0.00    +0.220 A 
ATOM      9  N   UNL     1      15.980   5.560   1.392  0.00  0.00    -0.283 N 
ATOM     36  H   UNL     1      16.001   4.559   1.581  0.00  0.00    +0.155 HD
ATOM     37  N   UNL     1      16.160   5.963   3.696  0.00  0.00    -0.214 NA
BRANCH   4   3
ATOM      1  C   UNL     1      16.562   6.148   8.643  0.00  0.00    +0.020 A 
ATOM      2  C   UNL     1      16.477   6.846   7.382  0.00  0.00    +0.013 A 
ATOM      3  C   UNL     1      16.332   6.111   6.131  0.00  0.00    +0.019 A 
ATOM     38  C   UNL     1      16.276   4.659   6.193  0.00  0.00    +0.120 A 
ATOM     39  N   UNL     1      16.362   4.013   7.422  0.00  0.00    -0.263 NA
ATOM     40  C   UNL     1      16.503   4.710   8.632  0.00  0.00    +0.111 A 
ENDBRANCH   4   3
ENDBRANCH  10   9
BRANCH  12  13
ATOM     13  N   UNL     1      13.191   7.537  -2.223  0.00  0.00    -0.281 N 
ATOM     14  C   UNL     1      11.988   6.874  -2.397  0.00  0.00    +0.248 C 
ATOM     30  O   UNL     1      11.855   5.660  -2.349  0.00  0.00    -0.270 OA
ATOM     31  H   UNL     1      13.200   8.525  -2.480  0.00  0.00    +0.155 HD
BRANCH  14  15
ATOM     15  C   UNL     1      10.757   7.673  -2.679  0.00  0.00    +0.037 A 
ATOM     16  C   UNL     1       9.424   7.154  -2.359  0.00  0.00    +0.013 A 
ATOM     17  C   UNL     1       8.252   7.938  -2.657  0.00  0.00    +0.005 A 
ATOM     18  C   UNL     1       8.408   9.252  -3.278  0.00  0.00    -0.033 A 
ATOM     28  C   UNL     1       9.742   9.744  -3.580  0.00  0.00    +0.005 A 
ATOM     29  C   UNL     1      10.893   8.978  -3.290  0.00  0.00    +0.013 A 
BRANCH  18  19
ATOM     19  C   UNL     1       7.212  10.148  -3.650  0.00  0.00    +0.119 C 
BRANCH  19  20
ATOM     20  N   UNL     1       7.499  11.584  -3.944  0.00  0.00    -0.302 NA
ATOM     21  C   UNL     1       6.529  12.523  -3.221  0.00  0.00    +0.066 C 
ATOM     22  C   UNL     1       6.858  14.021  -3.522  0.00  0.00    -0.064 C 
ATOM     23  N   UNL     1       6.815  14.257  -5.033  0.00  0.00    +0.379 N 
ATOM     24  C   UNL     1       7.066  15.677  -5.315  0.00  0.00    -0.096 C 
ATOM     25  H   UNL     1       5.783  14.020  -5.382  0.00  0.00    -0.082 HD
ATOM     26  C   UNL     1       7.774  13.325  -5.760  0.00  0.00    -0.064 C 
ATOM     27  C   UNL     1       7.457  11.839  -5.430  0.00  0.00    +0.066 C 
ENDBRANCH  19  20
ENDBRANCH  18  19
ENDBRANCH  14  15
ENDBRANCH  12  13
TORSDOF 6
ENDMDL
MODEL 3
REMARK VINA RESULT:      -7.1      9.217     17.094
REMARK  Name = C:\Users\Docking\Desktop\test protocol\1iep_ligandH.pdb
REMARK  8 active torsions:
REMARK  status: ('A' for Active; 'I' for Inactive)
REMARK    1  A    between atoms: _5  and  _11
REMARK    2  A    between atoms: _19  and  _21
REMARK    3  A    between atoms: _22  and  _66
REMARK    4  A    between atoms: _27  and  _30
REMARK    5  A    between atoms: _32  and  _33
REMARK    6  A    between atoms: _38  and  _43
REMARK    7  A    between atoms: _43  and  _46
REMARK    8  A    between atoms: _53  and  _55
REMARK                            x       y       z     vdW  Elec       q    Type
REMARK                         _______ _______ _______ _____ _____    ______ ____
ROOT
ATOM     10  C   UNL     1      15.889   3.392  14.534  0.00  0.00    +0.038 A 
ATOM     11  C   UNL     1      16.032   4.113  13.321  0.00  0.00    +0.047 A 
ATOM     12  C   UNL     1      15.494   3.597  12.072  0.00  0.00    +0.035 A 
ATOM     32  C   UNL     1      14.813   2.345  12.095  0.00  0.00    +0.024 A 
ATOM     33  C   UNL     1      14.660   1.599  13.320  0.00  0.00    +0.007 A 
ATOM     34  C   UNL     1      15.191   2.101  14.554  0.00  0.00    -0.029 A 
ATOM     35  C   UNL     1      15.003   1.256  15.835  0.00  0.00    +0.045 C 
ENDROOT
BRANCH  10   9
ATOM      4  C   UNL     1      15.447   5.693  18.723  0.00  0.00    +0.077 A 
ATOM      5  C   UNL     1      14.031   5.853  18.554  0.00  0.00    +0.048 A 
ATOM      6  C   UNL     1      13.457   5.334  17.371  0.00  0.00    +0.116 A 
ATOM      7  N   UNL     1      14.249   4.705  16.435  0.00  0.00    -0.223 NA
ATOM      8  C   UNL     1      15.611   4.570  16.629  0.00  0.00    +0.220 A 
ATOM      9  N   UNL     1      16.426   3.934  15.704  0.00  0.00    -0.283 N 
ATOM     36  H   UNL     1      17.427   3.862  15.881  0.00  0.00    +0.155 HD
ATOM     37  N   UNL     1      16.184   5.058  17.749  0.00  0.00    -0.214 NA
BRANCH   4   3
ATOM      1  C   UNL     1      16.344   7.397  22.128  0.00  0.00    +0.020 A 
ATOM      2  C   UNL     1      15.572   6.947  20.993  0.00  0.00    +0.013 A 
ATOM      3  C   UNL     1      16.199   6.184  19.921  0.00  0.00    +0.019 A 
ATOM     38  C   UNL     1      17.620   5.891  20.029  0.00  0.00    +0.120 A 
ATOM     39  N   UNL     1      18.339   6.339  21.134  0.00  0.00    -0.263 NA
ATOM     40  C   UNL     1      17.746   7.075  22.170  0.00  0.00    +0.111 A 
ENDBRANCH   4   3
ENDBRANCH  10   9
BRANCH  12  13
ATOM     13  N   UNL     1      15.615   4.280  10.808  0.00  0.00    -0.281 N 
ATOM     14  C   UNL     1      16.132   3.789   9.620  0.00  0.00    +0.248 C 
ATOM     30  O   UNL     1      16.769   2.750   9.521  0.00  0.00    -0.270 OA
ATOM     31  H   UNL     1      15.278   5.243  10.786  0.00  0.00    +0.155 HD
BRANCH  14  15
ATOM     15  C   UNL     1      15.925   4.571   8.364  0.00  0.00    +0.037 A 
ATOM     16  C   UNL     1      14.705   4.419   7.567  0.00  0.00    +0.013 A 
ATOM     17  C   UNL     1      14.538   5.173   6.350  0.00  0.00    +0.005 A 
ATOM     18  C   UNL     1      15.594   6.088   5.923  0.00  0.00    -0.033 A 
ATOM     28  C   UNL     1      16.791   6.223   6.736  0.00  0.00    +0.005 A 
ATOM     29  C   UNL     1      16.959   5.485   7.929  0.00  0.00    +0.013 A 
BRANCH  18  19
ATOM     19  C   UNL     1      15.509   6.916   4.628  0.00  0.00    +0.119 C 
BRANCH  19  20
ATOM     20  N   UNL     1      14.390   6.606   3.689  0.00  0.00    -0.302 NA
ATOM     21  C   UNL     1      14.897   6.045   2.357  0.00  0.00    +0.066 C 
ATOM     22  C   UNL     1      13.712   5.704   1.395  0.00  0.00    -0.064 C 
ATOM     23  N   UNL     1      12.866   6.958   1.168  0.00  0.00    +0.379 N 
ATOM     24  C   UNL     1      11.785   6.656   0.219  0.00  0.00    -0.096 C 
ATOM     25  H   UNL     1      13.523   7.728   0.700  0.00  0.00    -0.082 HD
ATOM     26  C   UNL     1      12.361   7.524   2.488  0.00  0.00    -0.064 C 
ATOM     27  C   UNL     1      13.545   7.832   3.447  0.00  0.00    +0.066 C 
ENDBRANCH  19  20
ENDBRANCH  18  19
ENDBRANCH  14  15
ENDBRANCH  12  13
TORSDOF 6
ENDMDL
MODEL 4
REMARK VINA RESULT:      -7.0     15.882     21.073
REMARK  Name = C:\Users\Docking\Desktop\test protocol\1iep_ligandH.pdb
REMARK  8 active torsions:
REMARK  status: ('A' for Active; 'I' for Inactive)
REMARK    1  A    between atoms: _5  and  _11
REMARK    2  A    between atoms: _19  and  _21
REMARK    3  A    between atoms: _22  and  _66
REMARK    4  A    between atoms: _27  and  _30
REMARK    5  A    between atoms: _32  and  _33
REMARK    6  A    between atoms: _38  and  _43
REMARK    7  A    between atoms: _43  and  _46
REMARK    8  A    between atoms: _53  and  _55
REMARK                            x       y       z     vdW  Elec       q    Type
REMARK                         _______ _______ _______ _____ _____    ______ ____
ROOT
ATOM     10  C   UNL     1      32.232  23.597   6.549  0.00  0.00    +0.038 A 
ATOM     11  C   UNL     1      31.385  23.479   5.418  0.00  0.00    +0.047 A 
ATOM     12  C   UNL     1      31.933  23.396   4.073  0.00  0.00    +0.035 A 
ATOM     32  C   UNL     1      33.349  23.434   3.916  0.00  0.00    +0.024 A 
ATOM     33  C   UNL     1      34.225  23.554   5.055  0.00  0.00    +0.007 A 
ATOM     34  C   UNL     1      33.690  23.639   6.384  0.00  0.00    -0.029 A 
ATOM     35  C   UNL     1      34.676  23.774   7.568  0.00  0.00    +0.045 C 
ENDROOT
BRANCH  10   9
ATOM      4  C   UNL     1      30.249  26.066  10.156  0.00  0.00    +0.077 A 
ATOM      5  C   UNL     1      30.406  27.314   9.466  0.00  0.00    +0.048 A 
ATOM      6  C   UNL     1      31.008  27.278   8.189  0.00  0.00    +0.116 A 
ATOM      7  N   UNL     1      31.419  26.078   7.650  0.00  0.00    -0.223 NA
ATOM      8  C   UNL     1      31.254  24.892   8.343  0.00  0.00    +0.220 A 
ATOM      9  N   UNL     1      31.652  23.673   7.817  0.00  0.00    -0.283 N 
ATOM     36  H   UNL     1      31.520  22.821   8.363  0.00  0.00    +0.155 HD
ATOM     37  N   UNL     1      30.683  24.900   9.565  0.00  0.00    -0.214 NA
BRANCH   4   3
ATOM      1  C   UNL     1      27.893  25.030  13.101  0.00  0.00    +0.020 A 
ATOM      2  C   UNL     1      28.453  25.118  11.772  0.00  0.00    +0.013 A 
ATOM      3  C   UNL     1      29.628  25.940  11.512  0.00  0.00    +0.019 A 
ATOM     38  C   UNL     1      30.218  26.665  12.628  0.00  0.00    +0.120 A 
ATOM     39  N   UNL     1      29.656  26.562  13.896  0.00  0.00    -0.263 NA
ATOM     40  C   UNL     1      28.524  25.776  14.158  0.00  0.00    +0.111 A 
ENDBRANCH   4   3
ENDBRANCH  10   9
BRANCH  12  13
ATOM     13  N   UNL     1      31.122  23.284   2.886  0.00  0.00    -0.281 N 
ATOM     14  C   UNL     1      31.110  24.117   1.780  0.00  0.00    +0.248 C 
ATOM     30  O   UNL     1      31.647  25.214   1.736  0.00  0.00    -0.270 OA
ATOM     31  H   UNL     1      30.478  22.493   2.858  0.00  0.00    +0.155 HD
BRANCH  14  15
ATOM     15  C   UNL     1      30.386  23.675   0.549  0.00  0.00    +0.037 A 
ATOM     16  C   UNL     1      30.374  22.269   0.138  0.00  0.00    +0.013 A 
ATOM     17  C   UNL     1      29.682  21.872  -1.062  0.00  0.00    +0.005 A 
ATOM     18  C   UNL     1      28.994  22.884  -1.860  0.00  0.00    -0.033 A 
ATOM     28  C   UNL     1      29.017  24.271  -1.426  0.00  0.00    +0.005 A 
ATOM     29  C   UNL     1      29.695  24.664  -0.251  0.00  0.00    +0.013 A 
BRANCH  18  19
ATOM     19  C   UNL     1      28.248  22.554  -3.166  0.00  0.00    +0.119 C 
BRANCH  19  20
ATOM     20  N   UNL     1      26.758  22.476  -3.102  0.00  0.00    -0.302 NA
ATOM     21  C   UNL     1      26.106  23.860  -3.164  0.00  0.00    +0.066 C 
ATOM     22  C   UNL     1      24.547  23.758  -3.118  0.00  0.00    -0.064 C 
ATOM     23  N   UNL     1      24.125  23.017  -1.848  0.00  0.00    +0.379 N 
ATOM     24  C   UNL     1      22.657  22.970  -1.773  0.00  0.00    -0.096 C 
ATOM     25  H   UNL     1      24.490  23.607  -0.975  0.00  0.00    -0.082 HD
ATOM     26  C   UNL     1      24.770  21.641  -1.777  0.00  0.00    -0.064 C 
ATOM     27  C   UNL     1      26.318  21.752  -1.853  0.00  0.00    +0.066 C 
ENDBRANCH  19  20
ENDBRANCH  18  19
ENDBRANCH  14  15
ENDBRANCH  12  13
TORSDOF 6
ENDMDL
MODEL 5
REMARK VINA RESULT:      -7.0      6.944     12.467
REMARK  Name = C:\Users\Docking\Desktop\test protocol\1iep_ligandH.pdb
REMARK  8 active torsions:
REMARK  status: ('A' for Active; 'I' for Inactive)
REMARK    1  A    between atoms: _5  and  _11
REMARK    2  A    between atoms: _19  and  _21
REMARK    3  A    between atoms: _22  and  _66
REMARK    4  A    between atoms: _27  and  _30
REMARK    5  A    between atoms: _32  and  _33
REMARK    6  A    between atoms: _38  and  _43
REMARK    7  A    between atoms: _43  and  _46
REMARK    8  A    between atoms: _53  and  _55
REMARK                            x       y       z     vdW  Elec       q    Type
REMARK                         _______ _______ _______ _____ _____    ______ ____
ROOT
ATOM     10  C   UNL     1      15.484   5.451   6.596  0.00  0.00    +0.038 A 
ATOM     11  C   UNL     1      14.292   4.728   6.856  0.00  0.00    +0.047 A 
ATOM     12  C   UNL     1      13.512   4.970   8.059  0.00  0.00    +0.035 A 
ATOM     32  C   UNL     1      13.973   5.960   8.976  0.00  0.00    +0.024 A 
ATOM     33  C   UNL     1      15.183   6.704   8.728  0.00  0.00    +0.007 A 
ATOM     34  C   UNL     1      15.958   6.467   7.544  0.00  0.00    -0.029 A 
ATOM     35  C   UNL     1      17.250   7.290   7.332  0.00  0.00    +0.045 C 
ENDROOT
BRANCH  10   9
ATOM      4  C   UNL     1      16.472   6.235   1.965  0.00  0.00    +0.077 A 
ATOM      5  C   UNL     1      15.471   7.257   1.863  0.00  0.00    +0.048 A 
ATOM      6  C   UNL     1      14.718   7.546   3.024  0.00  0.00    +0.116 A 
ATOM      7  N   UNL     1      14.958   6.858   4.193  0.00  0.00    -0.223 NA
ATOM      8  C   UNL     1      15.930   5.877   4.257  0.00  0.00    +0.220 A 
ATOM      9  N   UNL     1      16.194   5.178   5.425  0.00  0.00    -0.283 N 
ATOM     36  H   UNL     1      16.914   4.456   5.429  0.00  0.00    +0.155 HD
ATOM     37  N   UNL     1      16.661   5.581   3.162  0.00  0.00    -0.214 NA
BRANCH   4   3
ATOM      1  C   UNL     1      18.357   6.156  -1.462  0.00  0.00    +0.020 A 
ATOM      2  C   UNL     1      17.495   6.604  -0.392  0.00  0.00    +0.013 A 
ATOM      3  C   UNL     1      17.351   5.818   0.827  0.00  0.00    +0.019 A 
ATOM     38  C   UNL     1      18.100   4.575   0.933  0.00  0.00    +0.120 A 
ATOM     39  N   UNL     1      18.922   4.169  -0.114  0.00  0.00    -0.263 NA
ATOM     40  C   UNL     1      19.066   4.916  -1.292  0.00  0.00    +0.111 A 
ENDBRANCH   4   3
ENDBRANCH  10   9
BRANCH  12  13
ATOM     13  N   UNL     1      12.298   4.261   8.381  0.00  0.00    -0.281 N 
ATOM     14  C   UNL     1      11.931   3.710   9.598  0.00  0.00    +0.248 C 
ATOM     30  O   UNL     1      12.688   3.558  10.544  0.00  0.00    -0.270 OA
ATOM     31  H   UNL     1      11.629   4.152   7.619  0.00  0.00    +0.155 HD
BRANCH  14  15
ATOM     15  C   UNL     1      10.521   3.249   9.785  0.00  0.00    +0.037 A 
ATOM     16  C   UNL     1       9.507   3.464   8.749  0.00  0.00    +0.013 A 
ATOM     17  C   UNL     1       8.151   3.024   8.963  0.00  0.00    +0.005 A 
ATOM     18  C   UNL     1       7.802   2.364  10.218  0.00  0.00    -0.033 A 
ATOM     28  C   UNL     1       8.828   2.159  11.226  0.00  0.00    +0.005 A 
ATOM     29  C   UNL     1      10.158   2.589  11.021  0.00  0.00    +0.013 A 
BRANCH  18  19
ATOM     19  C   UNL     1       6.375   1.881  10.540  0.00  0.00    +0.119 C 
BRANCH  19  20
ATOM     20  N   UNL     1       5.575   2.702  11.497  0.00  0.00    -0.302 NA
ATOM     21  C   UNL     1       4.471   1.884  12.172  0.00  0.00    +0.066 C 
ATOM     22  C   UNL     1       3.658   2.753  13.187  0.00  0.00    -0.064 C 
ATOM     23  N   UNL     1       3.068   3.963  12.460  0.00  0.00    +0.379 N 
ATOM     24  C   UNL     1       2.255   4.750  13.398  0.00  0.00    -0.096 C 
ATOM     25  H   UNL     1       2.389   3.580  11.663  0.00  0.00    -0.082 HD
ATOM     26  C   UNL     1       4.159   4.780  11.783  0.00  0.00    -0.064 C 
ATOM     27  C   UNL     1       4.979   3.900  10.799  0.00  0.00    +0.066 C 
ENDBRANCH  19  20
ENDBRANCH  18  19
ENDBRANCH  14  15
ENDBRANCH  12  13
TORSDOF 6
ENDMDL
