MODEL 1
REMARK VINA RESULT:      -8.6      0.000      0.000
REMARK  Name = C:\Users\Docking\Desktop\test protocol\1iep_ligandH.pdb
REMARK  8 active torsions:
REMARK  status: ('A' for Active; 'I' for Inactive)
REMARK    1  A    between atoms: _5  and  _11
REMARK    2  A    between atoms: _19  and  _21
REMARK    3  A    between atoms: _22  and  _66
REMARK    4  A    between atoms: _27  and  _30
REMARK    5  A    between atoms: _32  and  _33
REMARK    6  A    between atoms: _38  and  _43
REMARK    7  A    between atoms: _43  and  _46
REMARK    8  A    between atoms: _53  and  _55
REMARK                            x       y       z     vdW  Elec       q    Type
REMARK                         _______ _______ _______ _____ _____    ______ ____
ROOT
ATOM     10  C   UNL     1      14.788  20.622  14.721  0.00  0.00    +0.038 A 
ATOM     11  C   UNL     1      13.533  20.858  14.105  0.00  0.00    +0.047 A 
ATOM     12  C   UNL     1      12.689  19.756  13.670  0.00  0.00    +0.035 A 
ATOM     32  C   UNL     1      13.155  18.425  13.879  0.00  0.00    +0.024 A 
ATOM     33  C   UNL     1      14.429  18.167  14.502  0.00  0.00    +0.007 A 
ATOM     34  C   UNL     1      15.267  19.250  14.932  0.00  0.00    -0.029 A 
ATOM     35  C   UNL     1      16.626  18.915  15.588  0.00  0.00    +0.045 C 
ENDROOT
BRANCH  10   9
ATOM      4  C   UNL     1      18.155  23.947  13.918  0.00  0.00    +0.077 A 
ATOM      5  C   UNL     1      18.424  23.442  12.602  0.00  0.00    +0.048 A 
ATOM      6  C   UNL     1      17.679  22.321  12.173  0.00  0.00    +0.116 A 
ATOM      7  N   UNL     1      16.738  21.755  13.005  0.00  0.00    -0.223 NA
ATOM      8  C   UNL     1      16.505  22.266  14.269  0.00  0.00    +0.220 A 
ATOM      9  N   UNL     1      15.557  21.718  15.120  0.00  0.00    -0.283 N 
ATOM     36  H   UNL     1      15.420  22.119  16.047  0.00  0.00    +0.155 HD
ATOM     37  N   UNL     1      17.204  23.335  14.703  0.00  0.00    -0.214 NA
BRANCH   4   3
ATOM      1  C   UNL     1      20.200  27.256  14.332  0.00  0.00    +0.020 A 
ATOM      2  C   UNL     1      19.537  26.134  13.708  0.00  0.00    +0.013 A 
ATOM      3  C   UNL     1      18.858  25.128  14.513  0.00  0.00    +0.019 A 
ATOM     38  C   UNL     1      18.868  25.287  15.960  0.00  0.00    +0.120 A 
ATOM     39  N   UNL     1      19.516  26.376  16.533  0.00  0.00    -0.263 NA
ATOM     40  C   UNL     1      20.174  27.350  15.768  0.00  0.00    +0.111 A 
ENDBRANCH   4   3
ENDBRANCH  10   9
BRANCH  12  13
ATOM     13  N   UNL     1      11.408  19.934  13.032  0.00  0.00    -0.281 N 
ATOM     14  C   UNL     1      10.193  20.227  13.629  0.00  0.00    +0.248 C 
ATOM     30  O   UNL     1       9.982  20.170  14.831  0.00  0.00    -0.270 OA
ATOM     31  H   UNL     1      11.396  19.832  12.017  0.00  0.00    +0.155 HD
BRANCH  14  15
ATOM     15  C   UNL     1       9.042  20.629  12.764  0.00  0.00    +0.037 A 
ATOM     16  C   UNL     1       8.639  19.819  11.611  0.00  0.00    +0.013 A 
ATOM     17  C   UNL     1       7.536  20.238  10.784  0.00  0.00    +0.005 A 
ATOM     18  C   UNL     1       6.826  21.473  11.107  0.00  0.00    -0.033 A 
ATOM     28  C   UNL     1       7.244  22.255  12.260  0.00  0.00    +0.005 A 
ATOM     29  C   UNL     1       8.325  21.848  13.073  0.00  0.00    +0.013 A 
BRANCH  18  19
ATOM     19  C   UNL     1       5.651  22.008  10.267  0.00  0.00    +0.119 C 
BRANCH  19  20
ATOM     20  N   UNL     1       5.696  21.761   8.795  0.00  0.00    -0.302 NA
ATOM     21  C   UNL     1       6.408  22.891   8.045  0.00  0.00    +0.066 C 
ATOM     22  C   UNL     1       6.465  22.606   6.509  0.00  0.00    -0.064 C 
ATOM     23  N   UNL     1       5.045  22.413   5.975  0.00  0.00    +0.379 N 
ATOM     24  C   UNL     1       5.091  22.203   4.521  0.00  0.00    -0.096 C 
ATOM     25  H   UNL     1       4.483  23.358   6.163  0.00  0.00    -0.082 HD
ATOM     26  C   UNL     1       4.328  21.294   6.717  0.00  0.00    -0.064 C 
ATOM     27  C   UNL     1       4.303  21.573   8.246  0.00  0.00    +0.066 C 
ENDBRANCH  19  20
ENDBRANCH  18  19
ENDBRANCH  14  15
ENDBRANCH  12  13
TORSDOF 6
ENDMDL
MODEL 2
REMARK VINA RESULT:      -8.5      1.758      2.127
REMARK  Name = C:\Users\Docking\Desktop\test protocol\1iep_ligandH.pdb
REMARK  8 active torsions:
REMARK  status: ('A' for Active; 'I' for Inactive)
REMARK    1  A    between atoms: _5  and  _11
REMARK    2  A    between atoms: _19  and  _21
REMARK    3  A    between atoms: _22  and  _66
REMARK    4  A    between atoms: _27  and  _30
REMARK    5  A    between atoms: _32  and  _33
REMARK    6  A    between atoms: _38  and  _43
REMARK    7  A    between atoms: _43  and  _46
REMARK    8  A    between atoms: _53  and  _55
REMARK                            x       y       z     vdW  Elec       q    Type
REMARK                         _______ _______ _______ _____ _____    ______ ____
ROOT
ATOM     10  C   UNL     1      13.821  22.552  16.288  0.00  0.00    +0.038 A 
ATOM     11  C   UNL     1      12.864  22.511  15.242  0.00  0.00    +0.047 A 
ATOM     12  C   UNL     1      11.859  21.461  15.183  0.00  0.00    +0.035 A 
ATOM     32  C   UNL     1      11.854  20.472  16.208  0.00  0.00    +0.024 A 
ATOM     33  C   UNL     1      12.820  20.498  17.279  0.00  0.00    +0.007 A 
ATOM     34  C   UNL     1      13.816  21.529  17.341  0.00  0.00    -0.029 A 
ATOM     35  C   UNL     1      14.830  21.504  18.508  0.00  0.00    +0.045 C 
ENDROOT
BRANCH  10   9
ATOM      4  C   UNL     1      18.086  24.395  15.084  0.00  0.00    +0.077 A 
ATOM      5  C   UNL     1      18.480  23.193  14.406  0.00  0.00    +0.048 A 
ATOM      6  C   UNL     1      17.558  22.122  14.396  0.00  0.00    +0.116 A 
ATOM      7  N   UNL     1      16.337  22.254  15.021  0.00  0.00    -0.223 NA
ATOM      8  C   UNL     1      15.990  23.425  15.667  0.00  0.00    +0.220 A 
ATOM      9  N   UNL     1      14.764  23.582  16.296  0.00  0.00    -0.283 N 
ATOM     36  H   UNL     1      14.548  24.460  16.768  0.00  0.00    +0.155 HD
ATOM     37  N   UNL     1      16.853  24.462  15.692  0.00  0.00    -0.214 NA
BRANCH   4   3
ATOM      1  C   UNL     1      20.126  27.605  14.170  0.00  0.00    +0.020 A 
ATOM      2  C   UNL     1      19.289  26.436  14.024  0.00  0.00    +0.013 A 
ATOM      3  C   UNL     1      18.949  25.615  15.179  0.00  0.00    +0.019 A 
ATOM     38  C   UNL     1      19.475  26.007  16.478  0.00  0.00    +0.120 A 
ATOM     39  N   UNL     1      20.279  27.137  16.588  0.00  0.00    -0.263 NA
ATOM     40  C   UNL     1      20.615  27.934  15.483  0.00  0.00    +0.111 A 
ENDBRANCH   4   3
ENDBRANCH  10   9
BRANCH  12  13
ATOM     13  N   UNL     1      10.867  21.363  14.140  0.00  0.00    -0.281 N 
ATOM     14  C   UNL     1       9.540  20.984  14.260  0.00  0.00    +0.248 C 
ATOM     30  O   UNL     1       9.057  20.463  15.254  0.00  0.00    -0.270 OA
ATOM     31  H   UNL     1      11.182  21.602  13.200  0.00  0.00    +0.155 HD
BRANCH  14  15
ATOM     15  C   UNL     1       8.620  21.202  13.102  0.00  0.00    +0.037 A 
ATOM     16  C   UNL     1       7.766  22.389  13.023  0.00  0.00    +0.013 A 
ATOM     17  C   UNL     1       6.875  22.566  11.904  0.00  0.00    +0.005 A 
ATOM     18  C   UNL     1       6.835  21.552  10.853  0.00  0.00    -0.033 A 
ATOM     28  C   UNL     1       7.697  20.386  10.954  0.00  0.00    +0.005 A 
ATOM     29  C   UNL     1       8.571  20.209  12.050  0.00  0.00    +0.013 A 
BRANCH  18  19
ATOM     19  C   UNL     1       5.900  21.648   9.633  0.00  0.00    +0.119 C 
BRANCH  19  20
ATOM     20  N   UNL     1       6.449  22.284   8.399  0.00  0.00    -0.302 NA
ATOM     21  C   UNL     1       6.510  23.810   8.517  0.00  0.00    +0.066 C 
ATOM     22  C   UNL     1       7.107  24.457   7.225  0.00  0.00    -0.064 C 
ATOM     23  N   UNL     1       6.270  24.041   6.015  0.00  0.00    +0.379 N 
ATOM     24  C   UNL     1       6.795  24.694   4.807  0.00  0.00    -0.096 C 
ATOM     25  H   UNL     1       5.232  24.413   6.177  0.00  0.00    -0.082 HD
ATOM     26  C   UNL     1       6.203  22.525   5.892  0.00  0.00    -0.064 C 
ATOM     27  C   UNL     1       5.635  21.890   7.191  0.00  0.00    +0.066 C 
ENDBRANCH  19  20
ENDBRANCH  18  19
ENDBRANCH  14  15
ENDBRANCH  12  13
TORSDOF 6
ENDMDL
MODEL 3
REMARK VINA RESULT:      -8.3      8.061     12.615
REMARK  Name = C:\Users\Docking\Desktop\test protocol\1iep_ligandH.pdb
REMARK  8 active torsions:
REMARK  status: ('A' for Active; 'I' for Inactive)
REMARK    1  A    between atoms: _5  and  _11
REMARK    2  A    between atoms: _19  and  _21
REMARK    3  A    between atoms: _22  and  _66
REMARK    4  A    between atoms: _27  and  _30
REMARK    5  A    between atoms: _32  and  _33
REMARK    6  A    between atoms: _38  and  _43
REMARK    7  A    between atoms: _43  and  _46
REMARK    8  A    between atoms: _53  and  _55
REMARK                            x       y       z     vdW  Elec       q    Type
REMARK                         _______ _______ _______ _____ _____    ______ ____
ROOT
ATOM     10  C   UNL     1       9.233  25.598  19.047  0.00  0.00    +0.038 A 
ATOM     11  C   UNL     1      10.587  25.460  18.647  0.00  0.00    +0.047 A 
ATOM     12  C   UNL     1      11.231  24.156  18.610  0.00  0.00    +0.035 A 
ATOM     32  C   UNL     1      10.465  23.014  18.985  0.00  0.00    +0.024 A 
ATOM     33  C   UNL     1       9.089  23.136  19.395  0.00  0.00    +0.007 A 
ATOM     34  C   UNL     1       8.449  24.420  19.435  0.00  0.00    -0.029 A 
ATOM     35  C   UNL     1       6.972  24.493  19.889  0.00  0.00    +0.045 C 
ENDROOT
BRANCH  10   9
ATOM      4  C   UNL     1       7.967  29.639  21.307  0.00  0.00    +0.077 A 
ATOM      5  C   UNL     1       8.454  29.156  22.567  0.00  0.00    +0.048 A 
ATOM      6  C   UNL     1       9.017  27.861  22.592  0.00  0.00    +0.116 A 
ATOM      7  N   UNL     1       9.083  27.112  21.437  0.00  0.00    -0.223 NA
ATOM      8  C   UNL     1       8.602  27.606  20.239  0.00  0.00    +0.220 A 
ATOM      9  N   UNL     1       8.665  26.874  19.063  0.00  0.00    -0.283 N 
ATOM     36  H   UNL     1       8.292  27.271  18.201  0.00  0.00    +0.155 HD
ATOM     37  N   UNL     1       8.058  28.840  20.189  0.00  0.00    -0.214 NA
BRANCH   4   3
ATOM      1  C   UNL     1       5.967  32.946  21.911  0.00  0.00    +0.020 A 
ATOM      2  C   UNL     1       6.542  31.641  22.144  0.00  0.00    +0.013 A 
ATOM      3  C   UNL     1       7.348  30.989  21.119  0.00  0.00    +0.019 A 
ATOM     38  C   UNL     1       7.555  31.690  19.861  0.00  0.00    +0.120 A 
ATOM     39  N   UNL     1       6.988  32.945  19.665  0.00  0.00    -0.263 NA
ATOM     40  C   UNL     1       6.209  33.582  20.643  0.00  0.00    +0.111 A 
ENDBRANCH   4   3
ENDBRANCH  10   9
BRANCH  12  13
ATOM     13  N   UNL     1      12.604  23.955  18.220  0.00  0.00    -0.281 N 
ATOM     14  C   UNL     1      13.096  23.108  17.241  0.00  0.00    +0.248 C 
ATOM     30  O   UNL     1      12.444  22.231  16.694  0.00  0.00    -0.270 OA
ATOM     31  H   UNL     1      13.298  24.504  18.728  0.00  0.00    +0.155 HD
BRANCH  14  15
ATOM     15  C   UNL     1      14.524  23.244  16.818  0.00  0.00    +0.037 A 
ATOM     16  C   UNL     1      15.598  23.381  17.805  0.00  0.00    +0.013 A 
ATOM     17  C   UNL     1      16.965  23.528  17.370  0.00  0.00    +0.005 A 
ATOM     18  C   UNL     1      17.264  23.538  15.940  0.00  0.00    -0.033 A 
ATOM     28  C   UNL     1      16.179  23.395  14.983  0.00  0.00    +0.005 A 
ATOM     29  C   UNL     1      14.839  23.251  15.406  0.00  0.00    +0.013 A 
BRANCH  18  19
ATOM     19  C   UNL     1      18.690  23.711  15.385  0.00  0.00    +0.119 C 
BRANCH  19  20
ATOM     20  N   UNL     1      19.144  22.736  14.350  0.00  0.00    -0.302 NA
ATOM     21  C   UNL     1      19.187  21.303  14.889  0.00  0.00    +0.066 C 
ATOM     22  C   UNL     1      19.642  20.293  13.786  0.00  0.00    -0.064 C 
ATOM     23  N   UNL     1      21.013  20.710  13.250  0.00  0.00    +0.379 N 
ATOM     24  C   UNL     1      21.470  19.730  12.254  0.00  0.00    -0.096 C 
ATOM     25  H   UNL     1      21.730  20.686  14.103  0.00  0.00    -0.082 HD
ATOM     26  C   UNL     1      20.980  22.135  12.715  0.00  0.00    -0.064 C 
ATOM     27  C   UNL     1      20.498  23.126  13.810  0.00  0.00    +0.066 C 
ENDBRANCH  19  20
ENDBRANCH  18  19
ENDBRANCH  14  15
ENDBRANCH  12  13
TORSDOF 6
ENDMDL
MODEL 4
REMARK VINA RESULT:      -8.2      1.154      1.800
REMARK  Name = C:\Users\Docking\Desktop\test protocol\1iep_ligandH.pdb
REMARK  8 active torsions:
REMARK  status: ('A' for Active; 'I' for Inactive)
REMARK    1  A    between atoms: _5  and  _11
REMARK    2  A    between atoms: _19  and  _21
REMARK    3  A    between atoms: _22  and  _66
REMARK    4  A    between atoms: _27  and  _30
REMARK    5  A    between atoms: _32  and  _33
REMARK    6  A    between atoms: _38  and  _43
REMARK    7  A    between atoms: _43  and  _46
REMARK    8  A    between atoms: _53  and  _55
REMARK                            x       y       z     vdW  Elec       q    Type
REMARK                         _______ _______ _______ _____ _____    ______ ____
ROOT
ATOM     10  C   UNL     1      14.623  20.723  14.758  0.00  0.00    +0.038 A 
ATOM     11  C   UNL     1      13.387  21.008  14.124  0.00  0.00    +0.047 A 
ATOM     12  C   UNL     1      12.501  19.939  13.688  0.00  0.00    +0.035 A 
ATOM     32  C   UNL     1      12.905  18.591  13.916  0.00  0.00    +0.024 A 
ATOM     33  C   UNL     1      14.159  18.284  14.557  0.00  0.00    +0.007 A 
ATOM     34  C   UNL     1      15.038  19.334  14.987  0.00  0.00    -0.029 A 
ATOM     35  C   UNL     1      16.373  18.945  15.664  0.00  0.00    +0.045 C 
ENDROOT
BRANCH  10   9
ATOM      4  C   UNL     1      18.107  23.923  13.947  0.00  0.00    +0.077 A 
ATOM      5  C   UNL     1      18.350  23.414  12.628  0.00  0.00    +0.048 A 
ATOM      6  C   UNL     1      17.561  22.322  12.199  0.00  0.00    +0.116 A 
ATOM      7  N   UNL     1      16.604  21.789  13.035  0.00  0.00    -0.223 NA
ATOM      8  C   UNL     1      16.397  22.303  14.302  0.00  0.00    +0.220 A 
ATOM      9  N   UNL     1      15.435  21.787  15.156  0.00  0.00    -0.283 N 
ATOM     36  H   UNL     1      15.318  22.190  16.086  0.00  0.00    +0.155 HD
ATOM     37  N   UNL     1      17.138  23.344  14.736  0.00  0.00    -0.214 NA
BRANCH   4   3
ATOM      1  C   UNL     1      20.282  27.148  14.362  0.00  0.00    +0.020 A 
ATOM      2  C   UNL     1      19.575  26.054  13.737  0.00  0.00    +0.013 A 
ATOM      3  C   UNL     1      18.857  25.074  14.543  0.00  0.00    +0.019 A 
ATOM     38  C   UNL     1      18.874  25.232  15.989  0.00  0.00    +0.120 A 
ATOM     39  N   UNL     1      19.565  26.294  16.563  0.00  0.00    -0.263 NA
ATOM     40  C   UNL     1      20.261  27.242  15.798  0.00  0.00    +0.111 A 
ENDBRANCH   4   3
ENDBRANCH  10   9
BRANCH  12  13
ATOM     13  N   UNL     1      11.237  20.167  13.033  0.00  0.00    -0.281 N 
ATOM     14  C   UNL     1      10.005  20.410  13.618  0.00  0.00    +0.248 C 
ATOM     30  O   UNL     1       9.762  20.256  14.806  0.00  0.00    -0.270 OA
ATOM     31  H   UNL     1      11.252  20.147  12.013  0.00  0.00    +0.155 HD
BRANCH  14  15
ATOM     15  C   UNL     1       8.877  20.879  12.758  0.00  0.00    +0.037 A 
ATOM     16  C   UNL     1       8.139  22.105  13.073  0.00  0.00    +0.013 A 
ATOM     17  C   UNL     1       7.044  22.526  12.236  0.00  0.00    +0.005 A 
ATOM     18  C   UNL     1       6.679  21.719  11.074  0.00  0.00    -0.033 A 
ATOM     28  C   UNL     1       7.431  20.509  10.782  0.00  0.00    +0.005 A 
ATOM     29  C   UNL     1       8.505  20.094  11.600  0.00  0.00    +0.013 A 
BRANCH  18  19
ATOM     19  C   UNL     1       5.511  22.080  10.138  0.00  0.00    +0.119 C 
BRANCH  19  20
ATOM     20  N   UNL     1       4.769  20.950   9.504  0.00  0.00    -0.302 NA
ATOM     21  C   UNL     1       4.535  21.183   8.008  0.00  0.00    +0.066 C 
ATOM     22  C   UNL     1       3.778  19.982   7.356  0.00  0.00    -0.064 C 
ATOM     23  N   UNL     1       2.450  19.764   8.084  0.00  0.00    +0.379 N 
ATOM     24  C   UNL     1       1.709  18.672   7.436  0.00  0.00    -0.096 C 
ATOM     25  H   UNL     1       1.847  20.695   7.972  0.00  0.00    -0.082 HD
ATOM     26  C   UNL     1       2.672  19.534   9.572  0.00  0.00    -0.064 C 
ATOM     27  C   UNL     1       3.452  20.720  10.204  0.00  0.00    +0.066 C 
ENDBRANCH  19  20
ENDBRANCH  18  19
ENDBRANCH  14  15
ENDBRANCH  12  13
TORSDOF 6
ENDMDL
MODEL 5
REMARK VINA RESULT:      -8.1      7.822     12.488
REMARK  Name = C:\Users\Docking\Desktop\test protocol\1iep_ligandH.pdb
REMARK  8 active torsions:
REMARK  status: ('A' for Active; 'I' for Inactive)
REMARK    1  A    between atoms: _5  and  _11
REMARK    2  A    between atoms: _19  and  _21
REMARK    3  A    between atoms: _22  and  _66
REMARK    4  A    between atoms: _27  and  _30
REMARK    5  A    between atoms: _32  and  _33
REMARK    6  A    between atoms: _38  and  _43
REMARK    7  A    between atoms: _43  and  _46
REMARK    8  A    between atoms: _53  and  _55
REMARK                            x       y       z     vdW  Elec       q    Type
REMARK                         _______ _______ _______ _____ _____    ______ ____
ROOT
ATOM     10  C   UNL     1       9.079  25.265  19.026  0.00  0.00    +0.038 A 
ATOM     11  C   UNL     1      10.414  25.016  18.617  0.00  0.00    +0.047 A 
ATOM     12  C   UNL     1      10.959  23.668  18.609  0.00  0.00    +0.035 A 
ATOM     32  C   UNL     1      10.116  22.596  19.022  0.00  0.00    +0.024 A 
ATOM     33  C   UNL     1       8.757  22.831  19.443  0.00  0.00    +0.007 A 
ATOM     34  C   UNL     1       8.214  24.159  19.455  0.00  0.00    -0.029 A 
ATOM     35  C   UNL     1       6.753  24.354  19.921  0.00  0.00    +0.045 C 
ENDROOT
BRANCH  10   9
ATOM      4  C   UNL     1       8.072  29.422  21.205  0.00  0.00    +0.077 A 
ATOM      5  C   UNL     1       8.498  28.924  22.481  0.00  0.00    +0.048 A 
ATOM      6  C   UNL     1       8.962  27.591  22.536  0.00  0.00    +0.116 A 
ATOM      7  N   UNL     1       8.995  26.822  21.392  0.00  0.00    -0.223 NA
ATOM      8  C   UNL     1       8.575  27.332  20.178  0.00  0.00    +0.220 A 
ATOM      9  N   UNL     1       8.607  26.580  19.014  0.00  0.00    -0.283 N 
ATOM     36  H   UNL     1       8.282  26.991  18.139  0.00  0.00    +0.155 HD
ATOM     37  N   UNL     1       8.126  28.602  20.100  0.00  0.00    -0.214 NA
BRANCH   4   3
ATOM      1  C   UNL     1       7.376  32.942  19.647  0.00  0.00    +0.020 A 
ATOM      2  C   UNL     1       7.898  31.605  19.811  0.00  0.00    +0.013 A 
ATOM      3  C   UNL     1       7.559  30.811  20.985  0.00  0.00    +0.019 A 
ATOM     38  C   UNL     1       6.681  31.404  21.983  0.00  0.00    +0.120 A 
ATOM     39  N   UNL     1       6.194  32.694  21.798  0.00  0.00    -0.263 NA
ATOM     40  C   UNL     1       6.515  33.468  20.673  0.00  0.00    +0.111 A 
ENDBRANCH   4   3
ENDBRANCH  10   9
BRANCH  12  13
ATOM     13  N   UNL     1      12.309  23.355  18.211  0.00  0.00    -0.281 N 
ATOM     14  C   UNL     1      12.724  22.606  17.122  0.00  0.00    +0.248 C 
ATOM     30  O   UNL     1      11.987  21.909  16.441  0.00  0.00    -0.270 OA
ATOM     31  H   UNL     1      13.049  23.731  18.804  0.00  0.00    +0.155 HD
BRANCH  14  15
ATOM     15  C   UNL     1      14.170  22.622  16.743  0.00  0.00    +0.037 A 
ATOM     16  C   UNL     1      14.600  23.031  15.404  0.00  0.00    +0.013 A 
ATOM     17  C   UNL     1      16.000  23.022  15.059  0.00  0.00    +0.005 A 
ATOM     18  C   UNL     1      16.980  22.602  16.058  0.00  0.00    -0.033 A 
ATOM     28  C   UNL     1      16.526  22.206  17.380  0.00  0.00    +0.005 A 
ATOM     29  C   UNL     1      15.155  22.213  17.722  0.00  0.00    +0.013 A 
BRANCH  18  19
ATOM     19  C   UNL     1      18.492  22.541  15.771  0.00  0.00    +0.119 C 
BRANCH  19  20
ATOM     20  N   UNL     1      19.208  23.839  15.596  0.00  0.00    -0.302 NA
ATOM     21  C   UNL     1      18.707  24.907  16.573  0.00  0.00    +0.066 C 
ATOM     22  C   UNL     1      19.483  26.253  16.392  0.00  0.00    -0.064 C 
ATOM     23  N   UNL     1      19.339  26.731  14.946  0.00  0.00    +0.379 N 
ATOM     24  C   UNL     1      20.019  28.025  14.787  0.00  0.00    -0.096 C 
ATOM     25  H   UNL     1      18.254  26.892  14.750  0.00  0.00    -0.082 HD
ATOM     26  C   UNL     1      19.832  25.674  13.968  0.00  0.00    -0.064 C 
ATOM     27  C   UNL     1      19.076  24.332  14.176  0.00  0.00    +0.066 C 
ENDBRANCH  19  20
ENDBRANCH  18  19
ENDBRANCH  14  15
ENDBRANCH  12  13
TORSDOF 6
ENDMDL
