MODEL 1
REMARK VINA RESULT:      -8.5      0.000      0.000
REMARK  Name = C:\Users\Docking\Desktop\test protocol\1iep_ligandH.pdb
REMARK  8 active torsions:
REMARK  status: ('A' for Active; 'I' for Inactive)
REMARK    1  A    between atoms: _5  and  _11
REMARK    2  A    between atoms: _19  and  _21
REMARK    3  A    between atoms: _22  and  _66
REMARK    4  A    between atoms: _27  and  _30
REMARK    5  A    between atoms: _32  and  _33
REMARK    6  A    between atoms: _38  and  _43
REMARK    7  A    between atoms: _43  and  _46
REMARK    8  A    between atoms: _53  and  _55
REMARK                            x       y       z     vdW  Elec       q    Type
REMARK                         _______ _______ _______ _____ _____    ______ ____
ROOT
ATOM     10  C   UNL     1      12.281   0.026   7.027  0.00  0.00    +0.038 A 
ATOM     11  C   UNL     1      11.705  -0.660   8.126  0.00  0.00    +0.047 A 
ATOM     12  C   UNL     1      11.750  -2.111   8.215  0.00  0.00    +0.035 A 
ATOM     32  C   UNL     1      12.394  -2.832   7.168  0.00  0.00    +0.024 A 
ATOM     33  C   UNL     1      12.984  -2.151   6.042  0.00  0.00    +0.007 A 
ATOM     34  C   UNL     1      12.939  -0.720   5.948  0.00  0.00    -0.029 A 
ATOM     35  C   UNL     1      13.583  -0.043   4.715  0.00  0.00    +0.045 C 
ENDROOT
BRANCH  10   9
ATOM      4  C   UNL     1      10.038   4.121   5.915  0.00  0.00    +0.077 A 
ATOM      5  C   UNL     1       8.929   3.424   5.330  0.00  0.00    +0.048 A 
ATOM      6  C   UNL     1       8.978   2.012   5.328  0.00  0.00    +0.116 A 
ATOM      7  N   UNL     1      10.060   1.356   5.875  0.00  0.00    -0.223 NA
ATOM      8  C   UNL     1      11.114   2.059   6.430  0.00  0.00    +0.220 A 
ATOM      9  N   UNL     1      12.208   1.420   6.992  0.00  0.00    -0.283 N 
ATOM     36  H   UNL     1      12.968   1.975   7.385  0.00  0.00    +0.155 HD
ATOM     37  N   UNL     1      11.091   3.408   6.442  0.00  0.00    -0.214 NA
BRANCH   4   3
ATOM      1  C   UNL     1       9.210   7.934   5.632  0.00  0.00    +0.020 A 
ATOM      2  C   UNL     1       9.070   6.499   5.532  0.00  0.00    +0.013 A 
ATOM      3  C   UNL     1      10.131   5.613   5.995  0.00  0.00    +0.019 A 
ATOM     38  C   UNL     1      11.328   6.216   6.561  0.00  0.00    +0.120 A 
ATOM     39  N   UNL     1      11.435   7.600   6.644  0.00  0.00    -0.263 NA
ATOM     40  C   UNL     1      10.422   8.463   6.199  0.00  0.00    +0.111 A 
ENDBRANCH   4   3
ENDBRANCH  10   9
BRANCH  12  13
ATOM     13  N   UNL     1      11.176  -2.863   9.303  0.00  0.00    -0.281 N 
ATOM     14  C   UNL     1      11.193  -4.235   9.493  0.00  0.00    +0.248 C 
ATOM     30  O   UNL     1      11.522  -5.046   8.641  0.00  0.00    -0.270 OA
ATOM     31  H   UNL     1      10.698  -2.317  10.021  0.00  0.00    +0.155 HD
BRANCH  14  15
ATOM     15  C   UNL     1      10.769  -4.787  10.816  0.00  0.00    +0.037 A 
ATOM     16  C   UNL     1      11.412  -4.357  12.060  0.00  0.00    +0.013 A 
ATOM     17  C   UNL     1      10.995  -4.917  13.321  0.00  0.00    +0.005 A 
ATOM     18  C   UNL     1       9.927  -5.914  13.344  0.00  0.00    -0.033 A 
ATOM     28  C   UNL     1       9.302  -6.318  12.095  0.00  0.00    +0.005 A 
ATOM     29  C   UNL     1       9.709  -5.772  10.857  0.00  0.00    +0.013 A 
BRANCH  18  19
ATOM     19  C   UNL     1       9.433  -6.580  14.641  0.00  0.00    +0.119 C 
BRANCH  19  20
ATOM     20  N   UNL     1      10.355  -7.548  15.307  0.00  0.00    -0.302 NA
ATOM     21  C   UNL     1      10.578  -8.805  14.461  0.00  0.00    +0.066 C 
ATOM     22  C   UNL     1      11.563  -9.796  15.163  0.00  0.00    -0.064 C 
ATOM     23  N   UNL     1      11.016 -10.162  16.544  0.00  0.00    +0.379 N 
ATOM     24  C   UNL     1      11.911 -11.138  17.183  0.00  0.00    -0.096 C 
ATOM     25  H   UNL     1      10.027 -10.654  16.396  0.00  0.00    -0.082 HD
ATOM     26  C   UNL     1      10.790  -8.917  17.390  0.00  0.00    -0.064 C 
ATOM     27  C   UNL     1       9.833  -7.926  16.671  0.00  0.00    +0.066 C 
ENDBRANCH  19  20
ENDBRANCH  18  19
ENDBRANCH  14  15
ENDBRANCH  12  13
TORSDOF 6
ENDMDL
MODEL 2
REMARK VINA RESULT:      -8.3      7.045     13.664
REMARK  Name = C:\Users\Docking\Desktop\test protocol\1iep_ligandH.pdb
REMARK  8 active torsions:
REMARK  status: ('A' for Active; 'I' for Inactive)
REMARK    1  A    between atoms: _5  and  _11
REMARK    2  A    between atoms: _19  and  _21
REMARK    3  A    between atoms: _22  and  _66
REMARK    4  A    between atoms: _27  and  _30
REMARK    5  A    between atoms: _32  and  _33
REMARK    6  A    between atoms: _38  and  _43
REMARK    7  A    between atoms: _43  and  _46
REMARK    8  A    between atoms: _53  and  _55
REMARK                            x       y       z     vdW  Elec       q    Type
REMARK                         _______ _______ _______ _____ _____    ______ ____
ROOT
ATOM     10  C   UNL     1      11.574  -6.622  11.557  0.00  0.00    +0.038 A 
ATOM     11  C   UNL     1      11.357  -7.358  10.364  0.00  0.00    +0.047 A 
ATOM     12  C   UNL     1      11.145  -6.683   9.092  0.00  0.00    +0.035 A 
ATOM     32  C   UNL     1      11.163  -5.258   9.073  0.00  0.00    +0.024 A 
ATOM     33  C   UNL     1      11.381  -4.495  10.276  0.00  0.00    +0.007 A 
ATOM     34  C   UNL     1      11.588  -5.155  11.534  0.00  0.00    -0.029 A 
ATOM     35  C   UNL     1      11.811  -4.286  12.794  0.00  0.00    +0.045 C 
ENDROOT
BRANCH  10   9
ATOM      4  C   UNL     1      10.002  -8.421  15.720  0.00  0.00    +0.077 A 
ATOM      5  C   UNL     1       8.681  -7.901  15.514  0.00  0.00    +0.048 A 
ATOM      6  C   UNL     1       8.449  -7.170  14.327  0.00  0.00    +0.116 A 
ATOM      7  N   UNL     1       9.470  -6.980  13.421  0.00  0.00    -0.223 NA
ATOM      8  C   UNL     1      10.733  -7.494  13.651  0.00  0.00    +0.220 A 
ATOM      9  N   UNL     1      11.772  -7.321  12.750  0.00  0.00    -0.283 N 
ATOM     36  H   UNL     1      12.692  -7.709  12.960  0.00  0.00    +0.155 HD
ATOM     37  N   UNL     1      10.980  -8.194  14.778  0.00  0.00    -0.214 NA
BRANCH   4   3
ATOM      1  C   UNL     1      10.202  -9.838  19.361  0.00  0.00    +0.020 A 
ATOM      2  C   UNL     1       9.779  -9.044  18.230  0.00  0.00    +0.013 A 
ATOM      3  C   UNL     1      10.402  -9.216  16.924  0.00  0.00    +0.019 A 
ATOM     38  C   UNL     1      11.457 -10.210  16.794  0.00  0.00    +0.120 A 
ATOM     39  N   UNL     1      11.845 -10.959  17.900  0.00  0.00    -0.263 NA
ATOM     40  C   UNL     1      11.254 -10.800  19.163  0.00  0.00    +0.111 A 
ENDBRANCH   4   3
ENDBRANCH  10   9
BRANCH  12  13
ATOM     13  N   UNL     1      10.912  -7.377   7.850  0.00  0.00    -0.281 N 
ATOM     14  C   UNL     1      11.729  -8.306   7.227  0.00  0.00    +0.248 C 
ATOM     30  O   UNL     1      12.890  -8.526   7.540  0.00  0.00    -0.270 OA
ATOM     31  H   UNL     1      10.039  -7.155   7.371  0.00  0.00    +0.155 HD
BRANCH  14  15
ATOM     15  C   UNL     1      11.181  -9.097   6.083  0.00  0.00    +0.037 A 
ATOM     16  C   UNL     1      10.103 -10.069   6.278  0.00  0.00    +0.013 A 
ATOM     17  C   UNL     1       9.605 -10.831   5.160  0.00  0.00    +0.005 A 
ATOM     18  C   UNL     1      10.185 -10.621   3.836  0.00  0.00    -0.033 A 
ATOM     28  C   UNL     1      11.250  -9.646   3.670  0.00  0.00    +0.005 A 
ATOM     29  C   UNL     1      11.741  -8.899   4.763  0.00  0.00    +0.013 A 
BRANCH  18  19
ATOM     19  C   UNL     1       9.730 -11.404   2.590  0.00  0.00    +0.119 C 
BRANCH  19  20
ATOM     20  N   UNL     1      10.166 -10.886   1.259  0.00  0.00    -0.302 NA
ATOM     21  C   UNL     1       9.144  -9.917   0.657  0.00  0.00    +0.066 C 
ATOM     22  C   UNL     1       9.627  -9.367  -0.725  0.00  0.00    -0.064 C 
ATOM     23  N   UNL     1       9.888 -10.538  -1.674  0.00  0.00    +0.379 N 
ATOM     24  C   UNL     1      10.286 -10.022  -2.991  0.00  0.00    -0.096 C 
ATOM     25  H   UNL     1       8.927 -11.090  -1.802  0.00  0.00    -0.082 HD
ATOM     26  C   UNL     1      10.901 -11.508  -1.081  0.00  0.00    -0.064 C 
ATOM     27  C   UNL     1      10.425 -12.026   0.305  0.00  0.00    +0.066 C 
ENDBRANCH  19  20
ENDBRANCH  18  19
ENDBRANCH  14  15
ENDBRANCH  12  13
TORSDOF 6
ENDMDL
MODEL 3
REMARK VINA RESULT:      -8.1      6.424      8.808
REMARK  Name = C:\Users\Docking\Desktop\test protocol\1iep_ligandH.pdb
REMARK  8 active torsions:
REMARK  status: ('A' for Active; 'I' for Inactive)
REMARK    1  A    between atoms: _5  and  _11
REMARK    2  A    between atoms: _19  and  _21
REMARK    3  A    between atoms: _22  and  _66
REMARK    4  A    between atoms: _27  and  _30
REMARK    5  A    between atoms: _32  and  _33
REMARK    6  A    between atoms: _38  and  _43
REMARK    7  A    between atoms: _43  and  _46
REMARK    8  A    between atoms: _53  and  _55
REMARK                            x       y       z     vdW  Elec       q    Type
REMARK                         _______ _______ _______ _____ _____    ______ ____
ROOT
ATOM     10  C   UNL     1      11.188  -4.206  10.101  0.00  0.00    +0.038 A 
ATOM     11  C   UNL     1      10.897  -5.222   9.156  0.00  0.00    +0.047 A 
ATOM     12  C   UNL     1      10.987  -6.630   9.513  0.00  0.00    +0.035 A 
ATOM     32  C   UNL     1      11.375  -6.966  10.843  0.00  0.00    +0.024 A 
ATOM     33  C   UNL     1      11.675  -5.945  11.816  0.00  0.00    +0.007 A 
ATOM     34  C   UNL     1      11.590  -4.555  11.469  0.00  0.00    -0.029 A 
ATOM     35  C   UNL     1      11.929  -3.504  12.551  0.00  0.00    +0.045 C 
ENDROOT
BRANCH  10   9
ATOM      4  C   UNL     1      12.050  -0.626   7.022  0.00  0.00    +0.077 A 
ATOM      5  C   UNL     1      12.791  -1.483   6.142  0.00  0.00    +0.048 A 
ATOM      6  C   UNL     1      12.934  -2.836   6.522  0.00  0.00    +0.116 A 
ATOM      7  N   UNL     1      12.372  -3.289   7.696  0.00  0.00    -0.223 NA
ATOM      8  C   UNL     1      11.665  -2.436   8.523  0.00  0.00    +0.220 A 
ATOM      9  N   UNL     1      11.084  -2.871   9.704  0.00  0.00    -0.283 N 
ATOM     36  H   UNL     1      10.576  -2.208  10.290  0.00  0.00    +0.155 HD
ATOM     37  N   UNL     1      11.515  -1.138   8.183  0.00  0.00    -0.214 NA
BRANCH   4   3
ATOM      1  C   UNL     1      10.470   2.952   6.993  0.00  0.00    +0.020 A 
ATOM      2  C   UNL     1      10.655   1.547   7.278  0.00  0.00    +0.013 A 
ATOM      3  C   UNL     1      11.810   0.827   6.757  0.00  0.00    +0.019 A 
ATOM     38  C   UNL     1      12.767   1.563   5.944  0.00  0.00    +0.120 A 
ATOM     39  N   UNL     1      12.562   2.915   5.685  0.00  0.00    -0.263 NA
ATOM     40  C   UNL     1      11.453   3.618   6.180  0.00  0.00    +0.111 A 
ENDBRANCH   4   3
ENDBRANCH  10   9
BRANCH  12  13
ATOM     13  N   UNL     1      10.712  -7.706   8.593  0.00  0.00    -0.281 N 
ATOM     14  C   UNL     1      11.621  -8.524   7.943  0.00  0.00    +0.248 C 
ATOM     30  O   UNL     1      12.824  -8.314   7.888  0.00  0.00    -0.270 OA
ATOM     31  H   UNL     1       9.727  -7.887   8.399  0.00  0.00    +0.155 HD
BRANCH  14  15
ATOM     15  C   UNL     1      11.121  -9.744   7.239  0.00  0.00    +0.037 A 
ATOM     16  C   UNL     1      11.304 -11.080   7.811  0.00  0.00    +0.013 A 
ATOM     17  C   UNL     1      10.827 -12.241   7.103  0.00  0.00    +0.005 A 
ATOM     18  C   UNL     1      10.159 -12.071   5.815  0.00  0.00    -0.033 A 
ATOM     28  C   UNL     1       9.986 -10.733   5.273  0.00  0.00    +0.005 A 
ATOM     29  C   UNL     1      10.453  -9.593   5.963  0.00  0.00    +0.013 A 
BRANCH  18  19
ATOM     19  C   UNL     1       9.637 -13.255   4.980  0.00  0.00    +0.119 C 
BRANCH  19  20
ATOM     20  N   UNL     1       9.005 -12.938   3.665  0.00  0.00    -0.302 NA
ATOM     21  C   UNL     1       7.800 -13.838   3.375  0.00  0.00    +0.066 C 
ATOM     22  C   UNL     1       7.138 -13.479   2.005  0.00  0.00    -0.064 C 
ATOM     23  N   UNL     1       8.181 -13.593   0.891  0.00  0.00    +0.379 N 
ATOM     24  C   UNL     1       7.547 -13.312  -0.405  0.00  0.00    -0.096 C 
ATOM     25  H   UNL     1       8.539 -14.649   0.871  0.00  0.00    -0.082 HD
ATOM     26  C   UNL     1       9.383 -12.704   1.173  0.00  0.00    -0.064 C 
ATOM     27  C   UNL     1      10.016 -13.050   2.550  0.00  0.00    +0.066 C 
ENDBRANCH  19  20
ENDBRANCH  18  19
ENDBRANCH  14  15
ENDBRANCH  12  13
TORSDOF 6
ENDMDL
MODEL 4
REMARK VINA RESULT:      -8.1      1.988      2.698
REMARK  Name = C:\Users\Docking\Desktop\test protocol\1iep_ligandH.pdb
REMARK  8 active torsions:
REMARK  status: ('A' for Active; 'I' for Inactive)
REMARK    1  A    between atoms: _5  and  _11
REMARK    2  A    between atoms: _19  and  _21
REMARK    3  A    between atoms: _22  and  _66
REMARK    4  A    between atoms: _27  and  _30
REMARK    5  A    between atoms: _32  and  _33
REMARK    6  A    between atoms: _38  and  _43
REMARK    7  A    between atoms: _43  and  _46
REMARK    8  A    between atoms: _53  and  _55
REMARK                            x       y       z     vdW  Elec       q    Type
REMARK                         _______ _______ _______ _____ _____    ______ ____
ROOT
ATOM     10  C   UNL     1      11.298  -0.916   5.295  0.00  0.00    +0.038 A 
ATOM     11  C   UNL     1      10.982  -1.759   6.391  0.00  0.00    +0.047 A 
ATOM     12  C   UNL     1      11.976  -2.653   6.964  0.00  0.00    +0.035 A 
ATOM     32  C   UNL     1      13.285  -2.660   6.398  0.00  0.00    +0.024 A 
ATOM     33  C   UNL     1      13.623  -1.809   5.284  0.00  0.00    +0.007 A 
ATOM     34  C   UNL     1      12.645  -0.928   4.713  0.00  0.00    -0.029 A 
ATOM     35  C   UNL     1      13.062  -0.043   3.515  0.00  0.00    +0.045 C 
ENDROOT
BRANCH  10   9
ATOM      4  C   UNL     1       9.053   3.319   5.038  0.00  0.00    +0.077 A 
ATOM      5  C   UNL     1       9.915   3.903   6.024  0.00  0.00    +0.048 A 
ATOM      6  C   UNL     1      10.919   3.078   6.578  0.00  0.00    +0.116 A 
ATOM      7  N   UNL     1      11.043   1.768   6.169  0.00  0.00    -0.223 NA
ATOM      8  C   UNL     1      10.193   1.235   5.217  0.00  0.00    +0.220 A 
ATOM      9  N   UNL     1      10.304  -0.078   4.784  0.00  0.00    -0.283 N 
ATOM     36  H   UNL     1       9.654  -0.435   4.086  0.00  0.00    +0.155 HD
ATOM     37  N   UNL     1       9.225   2.002   4.673  0.00  0.00    -0.214 NA
BRANCH   4   3
ATOM      1  C   UNL     1       6.300   4.392   2.475  0.00  0.00    +0.020 A 
ATOM      2  C   UNL     1       7.367   3.637   3.089  0.00  0.00    +0.013 A 
ATOM      3  C   UNL     1       7.946   4.063   4.357  0.00  0.00    +0.019 A 
ATOM     38  C   UNL     1       7.418   5.266   4.982  0.00  0.00    +0.120 A 
ATOM     39  N   UNL     1       6.390   5.974   4.366  0.00  0.00    -0.263 NA
ATOM     40  C   UNL     1       5.826   5.575   3.145  0.00  0.00    +0.111 A 
ENDBRANCH   4   3
ENDBRANCH  10   9
BRANCH  12  13
ATOM     13  N   UNL     1      11.711  -3.538   8.071  0.00  0.00    -0.281 N 
ATOM     14  C   UNL     1      11.505  -3.202   9.399  0.00  0.00    +0.248 C 
ATOM     30  O   UNL     1      11.730  -2.100   9.876  0.00  0.00    -0.270 OA
ATOM     31  H   UNL     1      11.670  -4.533   7.848  0.00  0.00    +0.155 HD
BRANCH  14  15
ATOM     15  C   UNL     1      10.987  -4.246  10.336  0.00  0.00    +0.037 A 
ATOM     16  C   UNL     1      11.109  -4.092  11.787  0.00  0.00    +0.013 A 
ATOM     17  C   UNL     1      10.617  -5.122  12.668  0.00  0.00    +0.005 A 
ATOM     18  C   UNL     1       9.996  -6.315  12.097  0.00  0.00    -0.033 A 
ATOM     28  C   UNL     1       9.883  -6.439  10.654  0.00  0.00    +0.005 A 
ATOM     29  C   UNL     1      10.365  -5.433   9.788  0.00  0.00    +0.013 A 
BRANCH  18  19
ATOM     19  C   UNL     1       9.461  -7.473  12.960  0.00  0.00    +0.119 C 
BRANCH  19  20
ATOM     20  N   UNL     1       9.680  -7.385  14.435  0.00  0.00    -0.302 NA
ATOM     21  C   UNL     1      10.321  -8.656  14.998  0.00  0.00    +0.066 C 
ATOM     22  C   UNL     1      10.563  -8.538  16.538  0.00  0.00    -0.064 C 
ATOM     23  N   UNL     1       9.236  -8.244  17.239  0.00  0.00    +0.379 N 
ATOM     24  C   UNL     1       9.450  -8.190  18.693  0.00  0.00    -0.096 C 
ATOM     25  H   UNL     1       8.548  -9.096  17.030  0.00  0.00    -0.082 HD
ATOM     26  C   UNL     1       8.590  -6.983  16.683  0.00  0.00    -0.064 C 
ATOM     27  C   UNL     1       8.381  -7.100  15.148  0.00  0.00    +0.066 C 
ENDBRANCH  19  20
ENDBRANCH  18  19
ENDBRANCH  14  15
ENDBRANCH  12  13
TORSDOF 6
ENDMDL
MODEL 5
REMARK VINA RESULT:      -8.1      7.534     13.541
REMARK  Name = C:\Users\Docking\Desktop\test protocol\1iep_ligandH.pdb
REMARK  8 active torsions:
REMARK  status: ('A' for Active; 'I' for Inactive)
REMARK    1  A    between atoms: _5  and  _11
REMARK    2  A    between atoms: _19  and  _21
REMARK    3  A    between atoms: _22  and  _66
REMARK    4  A    between atoms: _27  and  _30
REMARK    5  A    between atoms: _32  and  _33
REMARK    6  A    between atoms: _38  and  _43
REMARK    7  A    between atoms: _43  and  _46
REMARK    8  A    between atoms: _53  and  _55
REMARK                            x       y       z     vdW  Elec       q    Type
REMARK                         _______ _______ _______ _____ _____    ______ ____
ROOT
ATOM     10  C   UNL     1      10.262 -10.869  11.052  0.00  0.00    +0.038 A 
ATOM     11  C   UNL     1      10.089 -10.217   9.805  0.00  0.00    +0.047 A 
ATOM     12  C   UNL     1      10.729 -10.717   8.598  0.00  0.00    +0.035 A 
ATOM     32  C   UNL     1      11.538 -11.886   8.698  0.00  0.00    +0.024 A 
ATOM     33  C   UNL     1      11.727 -12.561   9.958  0.00  0.00    +0.007 A 
ATOM     34  C   UNL     1      11.099 -12.071  11.152  0.00  0.00    -0.029 A 
ATOM     35  C   UNL     1      11.341 -12.831  12.477  0.00  0.00    +0.045 C 
ENDROOT
BRANCH  10   9
ATOM      4  C   UNL     1       9.532  -7.378  14.264  0.00  0.00    +0.077 A 
ATOM      5  C   UNL     1      10.527  -6.537  13.664  0.00  0.00    +0.048 A 
ATOM      6  C   UNL     1      11.209  -7.042  12.534  0.00  0.00    +0.116 A 
ATOM      7  N   UNL     1      10.909  -8.297  12.049  0.00  0.00    -0.223 NA
ATOM      8  C   UNL     1       9.946  -9.084  12.653  0.00  0.00    +0.220 A 
ATOM      9  N   UNL     1       9.623 -10.346  12.178  0.00  0.00    -0.283 N 
ATOM     36  H   UNL     1       8.912 -10.898  12.656  0.00  0.00    +0.155 HD
ATOM     37  N   UNL     1       9.282  -8.624  13.734  0.00  0.00    -0.214 NA
BRANCH   4   3
ATOM      1  C   UNL     1       6.878  -5.681  16.582  0.00  0.00    +0.020 A 
ATOM      2  C   UNL     1       7.626  -6.028  15.396  0.00  0.00    +0.013 A 
ATOM      3  C   UNL     1       8.725  -6.984  15.462  0.00  0.00    +0.019 A 
ATOM     38  C   UNL     1       9.042  -7.577  16.752  0.00  0.00    +0.120 A 
ATOM     39  N   UNL     1       8.304  -7.223  17.878  0.00  0.00    -0.263 NA
ATOM     40  C   UNL     1       7.246  -6.303  17.827  0.00  0.00    +0.111 A 
ENDBRANCH   4   3
ENDBRANCH  10   9
BRANCH  12  13
ATOM     13  N   UNL     1      10.596 -10.092   7.306  0.00  0.00    -0.281 N 
ATOM     14  C   UNL     1      11.519  -9.299   6.644  0.00  0.00    +0.248 C 
ATOM     30  O   UNL     1      12.522  -8.828   7.160  0.00  0.00    -0.270 OA
ATOM     31  H   UNL     1       9.714 -10.254   6.819  0.00  0.00    +0.155 HD
BRANCH  14  15
ATOM     15  C   UNL     1      11.288  -8.968   5.205  0.00  0.00    +0.037 A 
ATOM     16  C   UNL     1      12.387  -8.540   4.337  0.00  0.00    +0.013 A 
ATOM     17  C   UNL     1      12.133  -8.211   2.957  0.00  0.00    +0.005 A 
ATOM     18  C   UNL     1      10.772  -8.311   2.436  0.00  0.00    -0.033 A 
ATOM     28  C   UNL     1       9.701  -8.743   3.317  0.00  0.00    +0.005 A 
ATOM     29  C   UNL     1       9.946  -9.066   4.671  0.00  0.00    +0.013 A 
BRANCH  18  19
ATOM     19  C   UNL     1      10.406  -7.959   0.982  0.00  0.00    +0.119 C 
BRANCH  19  20
ATOM     20  N   UNL     1       9.673  -6.679   0.752  0.00  0.00    -0.302 NA
ATOM     21  C   UNL     1       8.780  -6.743  -0.491  0.00  0.00    +0.066 C 
ATOM     22  C   UNL     1       8.003  -5.403  -0.704  0.00  0.00    -0.064 C 
ATOM     23  N   UNL     1       9.002  -4.249  -0.813  0.00  0.00    +0.379 N 
ATOM     24  C   UNL     1       8.278  -2.996  -1.071  0.00  0.00    -0.096 C 
ATOM     25  H   UNL     1       9.655  -4.450  -1.694  0.00  0.00    -0.082 HD
ATOM     26  C   UNL     1       9.895  -4.180   0.417  0.00  0.00    -0.064 C 
ATOM     27  C   UNL     1      10.640  -5.526   0.636  0.00  0.00    +0.066 C 
ENDBRANCH  19  20
ENDBRANCH  18  19
ENDBRANCH  14  15
ENDBRANCH  12  13
TORSDOF 6
ENDMDL
