MODEL 1
REMARK VINA RESULT:      -9.0      0.000      0.000
REMARK  Name = C:\Users\Docking\Desktop\test protocol\1iep_ligandH.pdb
REMARK  8 active torsions:
REMARK  status: ('A' for Active; 'I' for Inactive)
REMARK    1  A    between atoms: _5  and  _11
REMARK    2  A    between atoms: _19  and  _21
REMARK    3  A    between atoms: _22  and  _66
REMARK    4  A    between atoms: _27  and  _30
REMARK    5  A    between atoms: _32  and  _33
REMARK    6  A    between atoms: _38  and  _43
REMARK    7  A    between atoms: _43  and  _46
REMARK    8  A    between atoms: _53  and  _55
REMARK                            x       y       z     vdW  Elec       q    Type
REMARK                         _______ _______ _______ _____ _____    ______ ____
ROOT
ATOM     10  C   UNL     1      -2.356 -50.144   9.171  0.00  0.00    +0.038 A 
ATOM     11  C   UNL     1      -2.679 -49.837  10.517  0.00  0.00    +0.047 A 
ATOM     12  C   UNL     1      -2.315 -50.734  11.602  0.00  0.00    +0.035 A 
ATOM     32  C   UNL     1      -1.619 -51.936  11.280  0.00  0.00    +0.024 A 
ATOM     33  C   UNL     1      -1.284 -52.265   9.917  0.00  0.00    +0.007 A 
ATOM     34  C   UNL     1      -1.643 -51.384   8.842  0.00  0.00    -0.029 A 
ATOM     35  C   UNL     1      -1.264 -51.791   7.399  0.00  0.00    +0.045 C 
ENDROOT
BRANCH  10   9
ATOM      4  C   UNL     1      -5.533 -48.392   6.027  0.00  0.00    +0.077 A 
ATOM      5  C   UNL     1      -6.521 -49.365   6.394  0.00  0.00    +0.048 A 
ATOM      6  C   UNL     1      -6.170 -50.303   7.391  0.00  0.00    +0.116 A 
ATOM      7  N   UNL     1      -4.921 -50.262   7.971  0.00  0.00    -0.223 NA
ATOM      8  C   UNL     1      -3.990 -49.311   7.593  0.00  0.00    +0.220 A 
ATOM      9  N   UNL     1      -2.731 -49.246   8.168  0.00  0.00    -0.283 N 
ATOM     36  H   UNL     1      -2.070 -48.535   7.856  0.00  0.00    +0.155 HD
ATOM     37  N   UNL     1      -4.301 -48.406   6.642  0.00  0.00    -0.214 NA
BRANCH   4   3
ATOM      1  C   UNL     1      -5.321 -45.058   3.993  0.00  0.00    +0.020 A 
ATOM      2  C   UNL     1      -5.071 -46.046   5.017  0.00  0.00    +0.013 A 
ATOM      3  C   UNL     1      -5.755 -47.333   4.993  0.00  0.00    +0.019 A 
ATOM     38  C   UNL     1      -6.692 -47.591   3.910  0.00  0.00    +0.120 A 
ATOM     39  N   UNL     1      -6.914 -46.620   2.939  0.00  0.00    -0.263 NA
ATOM     40  C   UNL     1      -6.263 -45.377   2.953  0.00  0.00    +0.111 A 
ENDBRANCH   4   3
ENDBRANCH  10   9
BRANCH  12  13
ATOM     13  N   UNL     1      -2.623 -50.479  12.987  0.00  0.00    -0.281 N 
ATOM     14  C   UNL     1      -1.743 -50.189  14.016  0.00  0.00    +0.248 C 
ATOM     30  O   UNL     1      -0.529 -50.317  13.944  0.00  0.00    -0.270 OA
ATOM     31  H   UNL     1      -3.611 -50.516  13.240  0.00  0.00    +0.155 HD
BRANCH  14  15
ATOM     15  C   UNL     1      -2.289 -49.701  15.319  0.00  0.00    +0.037 A 
ATOM     16  C   UNL     1      -1.402 -49.328  16.424  0.00  0.00    +0.013 A 
ATOM     17  C   UNL     1      -1.956 -48.877  17.675  0.00  0.00    +0.005 A 
ATOM     18  C   UNL     1      -3.407 -48.794  17.828  0.00  0.00    -0.033 A 
ATOM     28  C   UNL     1      -4.264 -49.165  16.714  0.00  0.00    +0.005 A 
ATOM     29  C   UNL     1      -3.724 -49.609  15.486  0.00  0.00    +0.013 A 
BRANCH  18  19
ATOM     19  C   UNL     1      -4.086 -48.343  19.135  0.00  0.00    +0.119 C 
BRANCH  19  20
ATOM     20  N   UNL     1      -4.716 -46.989  19.146  0.00  0.00    -0.302 NA
ATOM     21  C   UNL     1      -3.818 -45.932  18.497  0.00  0.00    +0.066 C 
ATOM     22  C   UNL     1      -4.501 -44.526  18.497  0.00  0.00    -0.064 C 
ATOM     23  N   UNL     1      -4.851 -44.132  19.934  0.00  0.00    +0.379 N 
ATOM     24  C   UNL     1      -5.441 -42.786  19.943  0.00  0.00    -0.096 C 
ATOM     25  H   UNL     1      -3.899 -44.088  20.513  0.00  0.00    -0.082 HD
ATOM     26  C   UNL     1      -5.742 -45.179  20.587  0.00  0.00    -0.064 C 
ATOM     27  C   UNL     1      -5.065 -46.578  20.555  0.00  0.00    +0.066 C 
ENDBRANCH  19  20
ENDBRANCH  18  19
ENDBRANCH  14  15
ENDBRANCH  12  13
TORSDOF 6
ENDMDL
MODEL 2
REMARK VINA RESULT:      -8.8      1.878      2.835
REMARK  Name = C:\Users\Docking\Desktop\test protocol\1iep_ligandH.pdb
REMARK  8 active torsions:
REMARK  status: ('A' for Active; 'I' for Inactive)
REMARK    1  A    between atoms: _5  and  _11
REMARK    2  A    between atoms: _19  and  _21
REMARK    3  A    between atoms: _22  and  _66
REMARK    4  A    between atoms: _27  and  _30
REMARK    5  A    between atoms: _32  and  _33
REMARK    6  A    between atoms: _38  and  _43
REMARK    7  A    between atoms: _43  and  _46
REMARK    8  A    between atoms: _53  and  _55
REMARK                            x       y       z     vdW  Elec       q    Type
REMARK                         _______ _______ _______ _____ _____    ______ ____
ROOT
ATOM     10  C   UNL     1      -2.644 -49.979  11.583  0.00  0.00    +0.038 A 
ATOM     11  C   UNL     1      -3.013 -49.445  12.844  0.00  0.00    +0.047 A 
ATOM     12  C   UNL     1      -2.641 -50.113  14.082  0.00  0.00    +0.035 A 
ATOM     32  C   UNL     1      -1.890 -51.321  13.999  0.00  0.00    +0.024 A 
ATOM     33  C   UNL     1      -1.507 -51.878  12.725  0.00  0.00    +0.007 A 
ATOM     34  C   UNL     1      -1.873 -51.226  11.501  0.00  0.00    -0.029 A 
ATOM     35  C   UNL     1      -1.441 -51.872  10.164  0.00  0.00    +0.045 C 
ENDROOT
BRANCH  10   9
ATOM      4  C   UNL     1      -5.863 -48.845   8.209  0.00  0.00    +0.077 A 
ATOM      5  C   UNL     1      -6.856 -49.705   8.783  0.00  0.00    +0.048 A 
ATOM      6  C   UNL     1      -6.496 -50.428   9.943  0.00  0.00    +0.116 A 
ATOM      7  N   UNL     1      -5.234 -50.292  10.480  0.00  0.00    -0.223 NA
ATOM      8  C   UNL     1      -4.299 -49.454   9.900  0.00  0.00    +0.220 A 
ATOM      9  N   UNL     1      -3.027 -49.296  10.427  0.00  0.00    -0.283 N 
ATOM     36  H   UNL     1      -2.364 -48.674   9.965  0.00  0.00    +0.155 HD
ATOM     37  N   UNL     1      -4.618 -48.755   8.791  0.00  0.00    -0.214 NA
BRANCH   4   3
ATOM      1  C   UNL     1      -6.329 -47.725   4.490  0.00  0.00    +0.020 A 
ATOM      2  C   UNL     1      -6.101 -48.571   5.638  0.00  0.00    +0.013 A 
ATOM      3  C   UNL     1      -6.093 -48.013   6.985  0.00  0.00    +0.019 A 
ATOM     38  C   UNL     1      -6.320 -46.584   7.136  0.00  0.00    +0.120 A 
ATOM     39  N   UNL     1      -6.535 -45.793   6.012  0.00  0.00    -0.263 NA
ATOM     40  C   UNL     1      -6.544 -46.319   4.711  0.00  0.00    +0.111 A 
ENDBRANCH   4   3
ENDBRANCH  10   9
BRANCH  12  13
ATOM     13  N   UNL     1      -2.995 -49.622  15.391  0.00  0.00    -0.281 N 
ATOM     14  C   UNL     1      -2.284 -48.743  16.192  0.00  0.00    +0.248 C 
ATOM     30  O   UNL     1      -1.126 -48.409  15.993  0.00  0.00    -0.270 OA
ATOM     31  H   UNL     1      -3.876 -49.965  15.774  0.00  0.00    +0.155 HD
BRANCH  14  15
ATOM     15  C   UNL     1      -2.952 -48.163  17.396  0.00  0.00    +0.037 A 
ATOM     16  C   UNL     1      -4.039 -48.871  18.078  0.00  0.00    +0.013 A 
ATOM     17  C   UNL     1      -4.678 -48.280  19.228  0.00  0.00    +0.005 A 
ATOM     18  C   UNL     1      -4.230 -46.974  19.704  0.00  0.00    -0.033 A 
ATOM     28  C   UNL     1      -3.146 -46.296  19.011  0.00  0.00    +0.005 A 
ATOM     29  C   UNL     1      -2.519 -46.871  17.884  0.00  0.00    +0.013 A 
BRANCH  18  19
ATOM     19  C   UNL     1      -4.868 -46.259  20.909  0.00  0.00    +0.119 C 
BRANCH  19  20
ATOM     20  N   UNL     1      -6.170 -45.564  20.682  0.00  0.00    -0.302 NA
ATOM     21  C   UNL     1      -6.011 -44.317  19.807  0.00  0.00    +0.066 C 
ATOM     22  C   UNL     1      -7.386 -43.615  19.561  0.00  0.00    -0.064 C 
ATOM     23  N   UNL     1      -8.020 -43.256  20.905  0.00  0.00    +0.379 N 
ATOM     24  C   UNL     1      -9.286 -42.544  20.676  0.00  0.00    -0.096 C 
ATOM     25  H   UNL     1      -7.329 -42.556  21.429  0.00  0.00    -0.082 HD
ATOM     26  C   UNL     1      -8.180 -44.490  21.782  0.00  0.00    -0.064 C 
ATOM     27  C   UNL     1      -6.812 -45.197  21.997  0.00  0.00    +0.066 C 
ENDBRANCH  19  20
ENDBRANCH  18  19
ENDBRANCH  14  15
ENDBRANCH  12  13
TORSDOF 6
ENDMDL
MODEL 3
REMARK VINA RESULT:      -8.5     28.701     33.292
REMARK  Name = C:\Users\Docking\Desktop\test protocol\1iep_ligandH.pdb
REMARK  8 active torsions:
REMARK  status: ('A' for Active; 'I' for Inactive)
REMARK    1  A    between atoms: _5  and  _11
REMARK    2  A    between atoms: _19  and  _21
REMARK    3  A    between atoms: _22  and  _66
REMARK    4  A    between atoms: _27  and  _30
REMARK    5  A    between atoms: _32  and  _33
REMARK    6  A    between atoms: _38  and  _43
REMARK    7  A    between atoms: _43  and  _46
REMARK    8  A    between atoms: _53  and  _55
REMARK                            x       y       z     vdW  Elec       q    Type
REMARK                         _______ _______ _______ _____ _____    ______ ____
ROOT
ATOM     10  C   UNL     1       3.128 -23.581  26.642  0.00  0.00    +0.038 A 
ATOM     11  C   UNL     1       3.820 -23.001  27.736  0.00  0.00    +0.047 A 
ATOM     12  C   UNL     1       3.507 -23.373  29.107  0.00  0.00    +0.035 A 
ATOM     32  C   UNL     1       2.485 -24.342  29.327  0.00  0.00    +0.024 A 
ATOM     33  C   UNL     1       1.771 -24.941  28.227  0.00  0.00    +0.007 A 
ATOM     34  C   UNL     1       2.074 -24.576  26.873  0.00  0.00    -0.029 A 
ATOM     35  C   UNL     1       1.272 -25.246  25.733  0.00  0.00    +0.045 C 
ENDROOT
BRANCH  10   9
ATOM      4  C   UNL     1       6.318 -22.947  23.112  0.00  0.00    +0.077 A 
ATOM      5  C   UNL     1       7.402 -23.416  23.927  0.00  0.00    +0.048 A 
ATOM      6  C   UNL     1       7.097 -23.804  25.252  0.00  0.00    +0.116 A 
ATOM      7  N   UNL     1       5.802 -23.725  25.715  0.00  0.00    -0.223 NA
ATOM      8  C   UNL     1       4.780 -23.267  24.903  0.00  0.00    +0.220 A 
ATOM      9  N   UNL     1       3.469 -23.187  25.346  0.00  0.00    -0.283 N 
ATOM     36  H   UNL     1       2.746 -22.836  24.719  0.00  0.00    +0.155 HD
ATOM     37  N   UNL     1       5.046 -22.889  23.636  0.00  0.00    -0.214 NA
BRANCH   4   3
ATOM      1  C   UNL     1       5.807 -22.501  19.260  0.00  0.00    +0.020 A 
ATOM      2  C   UNL     1       5.608 -22.959  20.616  0.00  0.00    +0.013 A 
ATOM      3  C   UNL     1       6.480 -22.505  21.691  0.00  0.00    +0.019 A 
ATOM     38  C   UNL     1       7.552 -21.579  21.359  0.00  0.00    +0.120 A 
ATOM     39  N   UNL     1       7.721 -21.156  20.044  0.00  0.00    -0.263 NA
ATOM     40  C   UNL     1       6.889 -21.588  19.001  0.00  0.00    +0.111 A 
ENDBRANCH   4   3
ENDBRANCH  10   9
BRANCH  12  13
ATOM     13  N   UNL     1       4.170 -22.811  30.258  0.00  0.00    -0.281 N 
ATOM     14  C   UNL     1       3.621 -22.027  31.259  0.00  0.00    +0.248 C 
ATOM     30  O   UNL     1       2.516 -21.509  31.202  0.00  0.00    -0.270 OA
ATOM     31  H   UNL     1       5.165 -23.017  30.345  0.00  0.00    +0.155 HD
BRANCH  14  15
ATOM     15  C   UNL     1       4.421 -21.769  32.495  0.00  0.00    +0.037 A 
ATOM     16  C   UNL     1       5.645 -20.965  32.454  0.00  0.00    +0.013 A 
ATOM     17  C   UNL     1       6.407 -20.746  33.658  0.00  0.00    +0.005 A 
ATOM     18  C   UNL     1       5.945 -21.331  34.914  0.00  0.00    -0.033 A 
ATOM     28  C   UNL     1       4.724 -22.120  34.927  0.00  0.00    +0.005 A 
ATOM     29  C   UNL     1       3.975 -22.338  33.749  0.00  0.00    +0.013 A 
BRANCH  18  19
ATOM     19  C   UNL     1       6.706 -21.167  36.243  0.00  0.00    +0.119 C 
BRANCH  19  20
ATOM     20  N   UNL     1       6.753 -19.798  36.839  0.00  0.00    -0.302 NA
ATOM     21  C   UNL     1       8.036 -19.052  36.465  0.00  0.00    +0.066 C 
ATOM     22  C   UNL     1       8.058 -17.614  37.078  0.00  0.00    -0.064 C 
ATOM     23  N   UNL     1       7.911 -17.709  38.598  0.00  0.00    +0.379 N 
ATOM     24  C   UNL     1       7.990 -16.363  39.183  0.00  0.00    -0.096 C 
ATOM     25  H   UNL     1       8.775 -18.298  38.985  0.00  0.00    -0.082 HD
ATOM     26  C   UNL     1       6.638 -18.452  38.979  0.00  0.00    -0.064 C 
ATOM     27  C   UNL     1       6.613 -19.869  38.340  0.00  0.00    +0.066 C 
ENDBRANCH  19  20
ENDBRANCH  18  19
ENDBRANCH  14  15
ENDBRANCH  12  13
TORSDOF 6
ENDMDL
MODEL 4
REMARK VINA RESULT:      -8.5      3.538      6.029
REMARK  Name = C:\Users\Docking\Desktop\test protocol\1iep_ligandH.pdb
REMARK  8 active torsions:
REMARK  status: ('A' for Active; 'I' for Inactive)
REMARK    1  A    between atoms: _5  and  _11
REMARK    2  A    between atoms: _19  and  _21
REMARK    3  A    between atoms: _22  and  _66
REMARK    4  A    between atoms: _27  and  _30
REMARK    5  A    between atoms: _32  and  _33
REMARK    6  A    between atoms: _38  and  _43
REMARK    7  A    between atoms: _43  and  _46
REMARK    8  A    between atoms: _53  and  _55
REMARK                            x       y       z     vdW  Elec       q    Type
REMARK                         _______ _______ _______ _____ _____    ______ ____
ROOT
ATOM     10  C   UNL     1      -1.337 -51.197   9.304  0.00  0.00    +0.038 A 
ATOM     11  C   UNL     1      -1.490 -50.881  10.679  0.00  0.00    +0.047 A 
ATOM     12  C   UNL     1      -2.807 -50.666  11.259  0.00  0.00    +0.035 A 
ATOM     32  C   UNL     1      -3.946 -50.784  10.411  0.00  0.00    +0.024 A 
ATOM     33  C   UNL     1      -3.809 -51.103   9.012  0.00  0.00    +0.007 A 
ATOM     34  C   UNL     1      -2.513 -51.313   8.433  0.00  0.00    -0.029 A 
ATOM     35  C   UNL     1      -2.425 -51.646   6.926  0.00  0.00    +0.045 C 
ENDROOT
BRANCH  10   9
ATOM      4  C   UNL     1       2.796 -49.556   7.497  0.00  0.00    +0.077 A 
ATOM      5  C   UNL     1       2.342 -48.196   7.536  0.00  0.00    +0.048 A 
ATOM      6  C   UNL     1       1.036 -47.962   8.022  0.00  0.00    +0.116 A 
ATOM      7  N   UNL     1       0.251 -49.017   8.435  0.00  0.00    -0.223 NA
ATOM      8  C   UNL     1       0.719 -50.317   8.382  0.00  0.00    +0.220 A 
ATOM      9  N   UNL     1      -0.050 -51.393   8.800  0.00  0.00    -0.283 N 
ATOM     36  H   UNL     1       0.329 -52.337   8.738  0.00  0.00    +0.155 HD
ATOM     37  N   UNL     1       1.962 -50.567   7.921  0.00  0.00    -0.214 NA
BRANCH   4   3
ATOM      1  C   UNL     1       5.691 -51.101   5.368  0.00  0.00    +0.020 A 
ATOM      2  C   UNL     1       4.360 -50.732   5.791  0.00  0.00    +0.013 A 
ATOM      3  C   UNL     1       4.152 -49.964   7.013  0.00  0.00    +0.019 A 
ATOM     38  C   UNL     1       5.322 -49.581   7.788  0.00  0.00    +0.120 A 
ATOM     39  N   UNL     1       6.592 -49.951   7.356  0.00  0.00    -0.263 NA
ATOM     40  C   UNL     1       6.804 -50.691   6.184  0.00  0.00    +0.111 A 
ENDBRANCH   4   3
ENDBRANCH  10   9
BRANCH  12  13
ATOM     13  N   UNL     1      -3.023 -50.335  12.646  0.00  0.00    -0.281 N 
ATOM     14  C   UNL     1      -2.246 -50.687  13.737  0.00  0.00    +0.248 C 
ATOM     30  O   UNL     1      -1.356 -51.525  13.710  0.00  0.00    -0.270 OA
ATOM     31  H   UNL     1      -3.851 -49.774  12.847  0.00  0.00    +0.155 HD
BRANCH  14  15
ATOM     15  C   UNL     1      -2.503 -50.023  15.051  0.00  0.00    +0.037 A 
ATOM     16  C   UNL     1      -3.868 -49.776  15.523  0.00  0.00    +0.013 A 
ATOM     17  C   UNL     1      -4.088 -49.118  16.787  0.00  0.00    +0.005 A 
ATOM     18  C   UNL     1      -2.938 -48.704  17.588  0.00  0.00    -0.033 A 
ATOM     28  C   UNL     1      -1.595 -48.966  17.098  0.00  0.00    +0.005 A 
ATOM     29  C   UNL     1      -1.376 -49.610  15.860  0.00  0.00    +0.013 A 
BRANCH  18  19
ATOM     19  C   UNL     1      -3.079 -47.977  18.939  0.00  0.00    +0.119 C 
BRANCH  19  20
ATOM     20  N   UNL     1      -3.912 -46.738  18.965  0.00  0.00    -0.302 NA
ATOM     21  C   UNL     1      -3.056 -45.469  18.926  0.00  0.00    +0.066 C 
ATOM     22  C   UNL     1      -3.944 -44.183  18.931  0.00  0.00    -0.064 C 
ATOM     23  N   UNL     1      -4.842 -44.192  20.169  0.00  0.00    +0.379 N 
ATOM     24  C   UNL     1      -5.638 -42.956  20.207  0.00  0.00    -0.096 C 
ATOM     25  H   UNL     1      -4.181 -44.197  21.066  0.00  0.00    -0.082 HD
ATOM     26  C   UNL     1      -5.695 -45.452  20.218  0.00  0.00    -0.064 C 
ATOM     27  C   UNL     1      -4.804 -46.724  20.182  0.00  0.00    +0.066 C 
ENDBRANCH  19  20
ENDBRANCH  18  19
ENDBRANCH  14  15
ENDBRANCH  12  13
TORSDOF 6
ENDMDL
MODEL 5
REMARK VINA RESULT:      -8.4     29.313     34.146
REMARK  Name = C:\Users\Docking\Desktop\test protocol\1iep_ligandH.pdb
REMARK  8 active torsions:
REMARK  status: ('A' for Active; 'I' for Inactive)
REMARK    1  A    between atoms: _5  and  _11
REMARK    2  A    between atoms: _19  and  _21
REMARK    3  A    between atoms: _22  and  _66
REMARK    4  A    between atoms: _27  and  _30
REMARK    5  A    between atoms: _32  and  _33
REMARK    6  A    between atoms: _38  and  _43
REMARK    7  A    between atoms: _43  and  _46
REMARK    8  A    between atoms: _53  and  _55
REMARK                            x       y       z     vdW  Elec       q    Type
REMARK                         _______ _______ _______ _____ _____    ______ ____
ROOT
ATOM     10  C   UNL     1       3.851 -22.693  27.103  0.00  0.00    +0.038 A 
ATOM     11  C   UNL     1       4.525 -21.947  28.104  0.00  0.00    +0.047 A 
ATOM     12  C   UNL     1       4.319 -22.225  29.517  0.00  0.00    +0.035 A 
ATOM     32  C   UNL     1       3.421 -23.272  29.875  0.00  0.00    +0.024 A 
ATOM     33  C   UNL     1       2.726 -24.039  28.871  0.00  0.00    +0.007 A 
ATOM     34  C   UNL     1       2.923 -23.767  27.476  0.00  0.00    -0.029 A 
ATOM     35  C   UNL     1       2.146 -24.617  26.443  0.00  0.00    +0.045 C 
ENDROOT
BRANCH  10   9
ATOM      4  C   UNL     1       6.542 -22.849  23.133  0.00  0.00    +0.077 A 
ATOM      5  C   UNL     1       7.580 -23.587  23.794  0.00  0.00    +0.048 A 
ATOM      6  C   UNL     1       7.385 -23.900  25.158  0.00  0.00    +0.116 A 
ATOM      7  N   UNL     1       6.235 -23.500  25.802  0.00  0.00    -0.223 NA
ATOM      8  C   UNL     1       5.254 -22.788  25.136  0.00  0.00    +0.220 A 
ATOM      9  N   UNL     1       4.086 -22.383  25.762  0.00  0.00    -0.283 N 
ATOM     36  H   UNL     1       3.390 -21.853  25.237  0.00  0.00    +0.155 HD
ATOM     37  N   UNL     1       5.417 -22.476  23.833  0.00  0.00    -0.214 NA
BRANCH   4   3
ATOM      1  C   UNL     1       5.734 -22.484  19.323  0.00  0.00    +0.020 A 
ATOM      2  C   UNL     1       5.633 -22.903  20.702  0.00  0.00    +0.013 A 
ATOM      3  C   UNL     1       6.600 -22.446  21.692  0.00  0.00    +0.019 A 
ATOM     38  C   UNL     1       7.664 -21.557  21.251  0.00  0.00    +0.120 A 
ATOM     39  N   UNL     1       7.737 -21.171  19.916  0.00  0.00    -0.263 NA
ATOM     40  C   UNL     1       6.813 -21.606  18.954  0.00  0.00    +0.111 A 
ENDBRANCH   4   3
ENDBRANCH  10   9
BRANCH  12  13
ATOM     13  N   UNL     1       4.970 -21.497  30.577  0.00  0.00    -0.281 N 
ATOM     14  C   UNL     1       4.390 -20.663  31.519  0.00  0.00    +0.248 C 
ATOM     30  O   UNL     1       3.242 -20.247  31.459  0.00  0.00    -0.270 OA
ATOM     31  H   UNL     1       5.982 -21.609  30.641  0.00  0.00    +0.155 HD
BRANCH  14  15
ATOM     15  C   UNL     1       5.206 -20.215  32.688  0.00  0.00    +0.037 A 
ATOM     16  C   UNL     1       5.023 -18.887  33.278  0.00  0.00    +0.013 A 
ATOM     17  C   UNL     1       5.835 -18.473  34.395  0.00  0.00    +0.005 A 
ATOM     18  C   UNL     1       6.838 -19.391  34.929  0.00  0.00    -0.033 A 
ATOM     28  C   UNL     1       6.995 -20.705  34.328  0.00  0.00    +0.005 A 
ATOM     29  C   UNL     1       6.202 -21.113  33.232  0.00  0.00    +0.013 A 
BRANCH  18  19
ATOM     19  C   UNL     1       7.764 -19.026  36.105  0.00  0.00    +0.119 C 
BRANCH  19  20
ATOM     20  N   UNL     1       7.114 -18.593  37.378  0.00  0.00    -0.302 NA
ATOM     21  C   UNL     1       8.022 -17.679  38.205  0.00  0.00    +0.066 C 
ATOM     22  C   UNL     1       7.318 -17.217  39.522  0.00  0.00    -0.064 C 
ATOM     23  N   UNL     1       6.904 -18.446  40.333  0.00  0.00    +0.379 N 
ATOM     24  C   UNL     1       6.294 -18.016  41.600  0.00  0.00    -0.096 C 
ATOM     25  H   UNL     1       7.830 -19.016  40.580  0.00  0.00    -0.082 HD
ATOM     26  C   UNL     1       6.003 -19.362  39.518  0.00  0.00    -0.064 C 
ATOM     27  C   UNL     1       6.701 -19.791  38.197  0.00  0.00    +0.066 C 
ENDBRANCH  19  20
ENDBRANCH  18  19
ENDBRANCH  14  15
ENDBRANCH  12  13
TORSDOF 6
ENDMDL
