MODEL 1
REMARK VINA RESULT:      -8.0      0.000      0.000
REMARK  Name = C:\Users\Docking\Desktop\test protocol\1iep_ligandH.pdb
REMARK  8 active torsions:
REMARK  status: ('A' for Active; 'I' for Inactive)
REMARK    1  A    between atoms: _5  and  _11
REMARK    2  A    between atoms: _19  and  _21
REMARK    3  A    between atoms: _22  and  _66
REMARK    4  A    between atoms: _27  and  _30
REMARK    5  A    between atoms: _32  and  _33
REMARK    6  A    between atoms: _38  and  _43
REMARK    7  A    between atoms: _43  and  _46
REMARK    8  A    between atoms: _53  and  _55
REMARK                            x       y       z     vdW  Elec       q    Type
REMARK                         _______ _______ _______ _____ _____    ______ ____
ROOT
ATOM     10  C   UNL     1       6.239 -15.228  30.937  0.00  0.00    +0.038 A 
ATOM     11  C   UNL     1       6.767 -15.599  29.674  0.00  0.00    +0.047 A 
ATOM     12  C   UNL     1       8.177 -15.916  29.511  0.00  0.00    +0.035 A 
ATOM     32  C   UNL     1       9.021 -15.849  30.657  0.00  0.00    +0.024 A 
ATOM     33  C   UNL     1       8.502 -15.474  31.949  0.00  0.00    +0.007 A 
ATOM     34  C   UNL     1       7.113 -15.157  32.115  0.00  0.00    -0.029 A 
ATOM     35  C   UNL     1       6.612 -14.755  33.522  0.00  0.00    +0.045 C 
ENDROOT
BRANCH  10   9
ATOM      4  C   UNL     1       2.338 -12.754  29.635  0.00  0.00    +0.077 A 
ATOM      5  C   UNL     1       3.080 -11.963  28.697  0.00  0.00    +0.048 A 
ATOM      6  C   UNL     1       4.465 -12.220  28.585  0.00  0.00    +0.116 A 
ATOM      7  N   UNL     1       5.053 -13.197  29.358  0.00  0.00    -0.223 NA
ATOM      8  C   UNL     1       4.309 -13.941  30.255  0.00  0.00    +0.220 A 
ATOM      9  N   UNL     1       4.878 -14.934  31.037  0.00  0.00    -0.283 N 
ATOM     36  H   UNL     1       4.296 -15.455  31.692  0.00  0.00    +0.155 HD
ATOM     37  N   UNL     1       2.985 -13.714  30.382  0.00  0.00    -0.214 NA
BRANCH   4   3
ATOM      1  C   UNL     1      -1.397 -11.640  29.309  0.00  0.00    +0.020 A 
ATOM      2  C   UNL     1       0.019 -11.750  29.044  0.00  0.00    +0.013 A 
ATOM      3  C   UNL     1       0.866 -12.604  29.866  0.00  0.00    +0.019 A 
ATOM     38  C   UNL     1       0.244 -13.342  30.955  0.00  0.00    +0.120 A 
ATOM     39  N   UNL     1      -1.122 -13.216  31.187  0.00  0.00    -0.263 NA
ATOM     40  C   UNL     1      -1.947 -12.395  30.404  0.00  0.00    +0.111 A 
ENDBRANCH   4   3
ENDBRANCH  10   9
BRANCH  12  13
ATOM     13  N   UNL     1       8.770 -16.290  28.251  0.00  0.00    -0.281 N 
ATOM     14  C   UNL     1       9.287 -17.523  27.886  0.00  0.00    +0.248 C 
ATOM     30  O   UNL     1       9.512 -18.436  28.666  0.00  0.00    -0.270 OA
ATOM     31  H   UNL     1       8.815 -15.558  27.543  0.00  0.00    +0.155 HD
BRANCH  14  15
ATOM     15  C   UNL     1       9.615 -17.771  26.449  0.00  0.00    +0.037 A 
ATOM     16  C   UNL     1       8.776 -18.637  25.617  0.00  0.00    +0.013 A 
ATOM     17  C   UNL     1       9.125 -18.874  24.238  0.00  0.00    +0.005 A 
ATOM     18  C   UNL     1      10.318 -18.240  23.683  0.00  0.00    -0.033 A 
ATOM     28  C   UNL     1      11.130 -17.381  24.529  0.00  0.00    +0.005 A 
ATOM     29  C   UNL     1      10.792 -17.148  25.881  0.00  0.00    +0.013 A 
BRANCH  18  19
ATOM     19  C   UNL     1      10.778 -18.453  22.228  0.00  0.00    +0.119 C 
BRANCH  19  20
ATOM     20  N   UNL     1      11.216 -19.828  21.844  0.00  0.00    -0.302 NA
ATOM     21  C   UNL     1      12.304 -20.366  22.777  0.00  0.00    +0.066 C 
ATOM     22  C   UNL     1      12.735 -21.814  22.374  0.00  0.00    -0.064 C 
ATOM     23  N   UNL     1      13.219 -21.813  20.923  0.00  0.00    +0.379 N 
ATOM     24  C   UNL     1      13.679 -23.161  20.559  0.00  0.00    -0.096 C 
ATOM     25  H   UNL     1      14.095 -21.128  20.859  0.00  0.00    -0.082 HD
ATOM     26  C   UNL     1      12.144 -21.277  19.988  0.00  0.00    -0.064 C 
ATOM     27  C   UNL     1      11.702 -19.850  20.415  0.00  0.00    +0.066 C 
ENDBRANCH  19  20
ENDBRANCH  18  19
ENDBRANCH  14  15
ENDBRANCH  12  13
TORSDOF 6
ENDMDL
MODEL 2
REMARK VINA RESULT:      -8.0      8.947     12.988
REMARK  Name = C:\Users\Docking\Desktop\test protocol\1iep_ligandH.pdb
REMARK  8 active torsions:
REMARK  status: ('A' for Active; 'I' for Inactive)
REMARK    1  A    between atoms: _5  and  _11
REMARK    2  A    between atoms: _19  and  _21
REMARK    3  A    between atoms: _22  and  _66
REMARK    4  A    between atoms: _27  and  _30
REMARK    5  A    between atoms: _32  and  _33
REMARK    6  A    between atoms: _38  and  _43
REMARK    7  A    between atoms: _43  and  _46
REMARK    8  A    between atoms: _53  and  _55
REMARK                            x       y       z     vdW  Elec       q    Type
REMARK                         _______ _______ _______ _____ _____    ______ ____
ROOT
ATOM     10  C   UNL     1       4.223 -15.555  35.184  0.00  0.00    +0.038 A 
ATOM     11  C   UNL     1       3.325 -14.691  34.508  0.00  0.00    +0.047 A 
ATOM     12  C   UNL     1       2.516 -15.167  33.397  0.00  0.00    +0.035 A 
ATOM     32  C   UNL     1       2.645 -16.530  33.003  0.00  0.00    +0.024 A 
ATOM     33  C   UNL     1       3.554 -17.422  33.679  0.00  0.00    +0.007 A 
ATOM     34  C   UNL     1       4.356 -16.958  34.774  0.00  0.00    -0.029 A 
ATOM     35  C   UNL     1       5.319 -17.957  35.457  0.00  0.00    +0.045 C 
ENDROOT
BRANCH  10   9
ATOM      4  C   UNL     1       8.246 -13.662  36.994  0.00  0.00    +0.077 A 
ATOM      5  C   UNL     1       8.913 -13.718  35.725  0.00  0.00    +0.048 A 
ATOM      6  C   UNL     1       8.189 -14.248  34.634  0.00  0.00    +0.116 A 
ATOM      7  N   UNL     1       6.894 -14.685  34.810  0.00  0.00    -0.223 NA
ATOM      8  C   UNL     1       6.280 -14.618  36.047  0.00  0.00    +0.220 A 
ATOM      9  N   UNL     1       4.976 -15.045  36.245  0.00  0.00    -0.283 N 
ATOM     36  H   UNL     1       4.562 -14.985  37.174  0.00  0.00    +0.155 HD
ATOM     37  N   UNL     1       6.951 -14.118  37.105  0.00  0.00    -0.214 NA
BRANCH   4   3
ATOM      1  C   UNL     1       8.812 -11.814  40.395  0.00  0.00    +0.020 A 
ATOM      2  C   UNL     1       8.155 -12.306  39.206  0.00  0.00    +0.013 A 
ATOM      3  C   UNL     1       8.878 -13.125  38.241  0.00  0.00    +0.019 A 
ATOM     38  C   UNL     1      10.275 -13.430  38.511  0.00  0.00    +0.120 A 
ATOM     39  N   UNL     1      10.881 -12.941  39.663  0.00  0.00    -0.263 NA
ATOM     40  C   UNL     1      10.196 -12.150  40.598  0.00  0.00    +0.111 A 
ENDBRANCH   4   3
ENDBRANCH  10   9
BRANCH  12  13
ATOM     13  N   UNL     1       1.592 -14.334  32.667  0.00  0.00    -0.281 N 
ATOM     14  C   UNL     1       1.713 -13.863  31.370  0.00  0.00    +0.248 C 
ATOM     30  O   UNL     1       2.740 -13.911  30.710  0.00  0.00    -0.270 OA
ATOM     31  H   UNL     1       0.747 -14.058  33.168  0.00  0.00    +0.155 HD
BRANCH  14  15
ATOM     15  C   UNL     1       0.525 -13.234  30.717  0.00  0.00    +0.037 A 
ATOM     16  C   UNL     1       0.660 -12.450  29.487  0.00  0.00    +0.013 A 
ATOM     17  C   UNL     1      -0.500 -11.840  28.887  0.00  0.00    +0.005 A 
ATOM     18  C   UNL     1      -1.807 -12.014  29.516  0.00  0.00    -0.033 A 
ATOM     28  C   UNL     1      -1.914 -12.801  30.733  0.00  0.00    +0.005 A 
ATOM     29  C   UNL     1      -0.779 -13.400  31.325  0.00  0.00    +0.013 A 
BRANCH  18  19
ATOM     19  C   UNL     1      -3.095 -11.381  28.957  0.00  0.00    +0.119 C 
BRANCH  19  20
ATOM     20  N   UNL     1      -4.149 -12.311  28.451  0.00  0.00    -0.302 NA
ATOM     21  C   UNL     1      -5.237 -12.570  29.498  0.00  0.00    +0.066 C 
ATOM     22  C   UNL     1      -6.343 -13.526  28.944  0.00  0.00    -0.064 C 
ATOM     23  N   UNL     1      -5.700 -14.839  28.494  0.00  0.00    +0.379 N 
ATOM     24  C   UNL     1      -6.744 -15.762  28.027  0.00  0.00    -0.096 C 
ATOM     25  H   UNL     1      -5.214 -15.301  29.385  0.00  0.00    -0.082 HD
ATOM     26  C   UNL     1      -4.615 -14.590  27.455  0.00  0.00    -0.064 C 
ATOM     27  C   UNL     1      -3.537 -13.615  28.005  0.00  0.00    +0.066 C 
ENDBRANCH  19  20
ENDBRANCH  18  19
ENDBRANCH  14  15
ENDBRANCH  12  13
TORSDOF 6
ENDMDL
MODEL 3
REMARK VINA RESULT:      -7.7     21.064     26.576
REMARK  Name = C:\Users\Docking\Desktop\test protocol\1iep_ligandH.pdb
REMARK  8 active torsions:
REMARK  status: ('A' for Active; 'I' for Inactive)
REMARK    1  A    between atoms: _5  and  _11
REMARK    2  A    between atoms: _19  and  _21
REMARK    3  A    between atoms: _22  and  _66
REMARK    4  A    between atoms: _27  and  _30
REMARK    5  A    between atoms: _32  and  _33
REMARK    6  A    between atoms: _38  and  _43
REMARK    7  A    between atoms: _43  and  _46
REMARK    8  A    between atoms: _53  and  _55
REMARK                            x       y       z     vdW  Elec       q    Type
REMARK                         _______ _______ _______ _____ _____    ______ ____
ROOT
ATOM     10  C   UNL     1       9.604 -19.732  55.339  0.00  0.00    +0.038 A 
ATOM     11  C   UNL     1       9.246 -19.298  54.037  0.00  0.00    +0.047 A 
ATOM     12  C   UNL     1       8.167 -19.940  53.301  0.00  0.00    +0.035 A 
ATOM     32  C   UNL     1       7.473 -21.018  53.922  0.00  0.00    +0.024 A 
ATOM     33  C   UNL     1       7.825 -21.472  55.245  0.00  0.00    +0.007 A 
ATOM     34  C   UNL     1       8.890 -20.845  55.975  0.00  0.00    -0.029 A 
ATOM     35  C   UNL     1       9.228 -21.378  57.386  0.00  0.00    +0.045 C 
ENDROOT
BRANCH  10   9
ATOM      4  C   UNL     1      11.363 -16.067  57.892  0.00  0.00    +0.077 A 
ATOM      5  C   UNL     1      10.103 -15.381  57.885  0.00  0.00    +0.048 A 
ATOM      6  C   UNL     1       9.030 -16.001  57.207  0.00  0.00    +0.116 A 
ATOM      7  N   UNL     1       9.214 -17.218  56.586  0.00  0.00    -0.223 NA
ATOM      8  C   UNL     1      10.442 -17.852  56.611  0.00  0.00    +0.220 A 
ATOM      9  N   UNL     1      10.647 -19.080  56.000  0.00  0.00    -0.283 N 
ATOM     36  H   UNL     1      11.570 -19.512  56.035  0.00  0.00    +0.155 HD
ATOM     37  N   UNL     1      11.483 -17.280  57.250  0.00  0.00    -0.214 NA
BRANCH   4   3
ATOM      1  C   UNL     1      13.779 -14.436  60.500  0.00  0.00    +0.020 A 
ATOM      2  C   UNL     1      12.565 -14.928  59.890  0.00  0.00    +0.013 A 
ATOM      3  C   UNL     1      12.590 -15.542  58.569  0.00  0.00    +0.019 A 
ATOM     38  C   UNL     1      13.871 -15.645  57.886  0.00  0.00    +0.120 A 
ATOM     39  N   UNL     1      15.024 -15.162  58.497  0.00  0.00    -0.263 NA
ATOM     40  C   UNL     1      15.011 -14.567  59.767  0.00  0.00    +0.111 A 
ENDBRANCH   4   3
ENDBRANCH  10   9
BRANCH  12  13
ATOM     13  N   UNL     1       7.764 -19.548  51.973  0.00  0.00    -0.281 N 
ATOM     14  C   UNL     1       7.181 -18.356  51.577  0.00  0.00    +0.248 C 
ATOM     30  O   UNL     1       6.719 -17.524  52.344  0.00  0.00    -0.270 OA
ATOM     31  H   UNL     1       7.929 -20.234  51.235  0.00  0.00    +0.155 HD
BRANCH  14  15
ATOM     15  C   UNL     1       7.083 -18.050  50.117  0.00  0.00    +0.037 A 
ATOM     16  C   UNL     1       7.668 -18.942  49.113  0.00  0.00    +0.013 A 
ATOM     17  C   UNL     1       7.574 -18.615  47.712  0.00  0.00    +0.005 A 
ATOM     18  C   UNL     1       6.890 -17.388  47.307  0.00  0.00    -0.033 A 
ATOM     28  C   UNL     1       6.315 -16.524  48.324  0.00  0.00    +0.005 A 
ATOM     29  C   UNL     1       6.406 -16.841  49.698  0.00  0.00    +0.013 A 
BRANCH  18  19
ATOM     19  C   UNL     1       6.761 -16.949  45.837  0.00  0.00    +0.119 C 
BRANCH  19  20
ATOM     20  N   UNL     1       7.558 -15.762  45.406  0.00  0.00    -0.302 NA
ATOM     21  C   UNL     1       7.461 -15.522  43.896  0.00  0.00    +0.066 C 
ATOM     22  C   UNL     1       8.282 -14.263  43.466  0.00  0.00    -0.064 C 
ATOM     23  N   UNL     1       9.740 -14.437  43.894  0.00  0.00    +0.379 N 
ATOM     24  C   UNL     1      10.526 -13.281  43.439  0.00  0.00    -0.096 C 
ATOM     25  H   UNL     1      10.138 -15.342  43.377  0.00  0.00    -0.082 HD
ATOM     26  C   UNL     1       9.845 -14.678  45.393  0.00  0.00    -0.064 C 
ATOM     27  C   UNL     1       9.002 -15.914  45.815  0.00  0.00    +0.066 C 
ENDBRANCH  19  20
ENDBRANCH  18  19
ENDBRANCH  14  15
ENDBRANCH  12  13
TORSDOF 6
ENDMDL
MODEL 4
REMARK VINA RESULT:      -7.6      8.192     15.274
REMARK  Name = C:\Users\Docking\Desktop\test protocol\1iep_ligandH.pdb
REMARK  8 active torsions:
REMARK  status: ('A' for Active; 'I' for Inactive)
REMARK    1  A    between atoms: _5  and  _11
REMARK    2  A    between atoms: _19  and  _21
REMARK    3  A    between atoms: _22  and  _66
REMARK    4  A    between atoms: _27  and  _30
REMARK    5  A    between atoms: _32  and  _33
REMARK    6  A    between atoms: _38  and  _43
REMARK    7  A    between atoms: _43  and  _46
REMARK    8  A    between atoms: _53  and  _55
REMARK                            x       y       z     vdW  Elec       q    Type
REMARK                         _______ _______ _______ _____ _____    ______ ____
ROOT
ATOM     10  C   UNL     1      -9.110 -16.392  30.043  0.00  0.00    +0.038 A 
ATOM     11  C   UNL     1      -7.838 -15.768  29.969  0.00  0.00    +0.047 A 
ATOM     12  C   UNL     1      -7.602 -14.644  29.077  0.00  0.00    +0.035 A 
ATOM     32  C   UNL     1      -8.685 -14.180  28.275  0.00  0.00    +0.024 A 
ATOM     33  C   UNL     1      -9.984 -14.803  28.337  0.00  0.00    +0.007 A 
ATOM     34  C   UNL     1     -10.222 -15.913  29.213  0.00  0.00    -0.029 A 
ATOM     35  C   UNL     1     -11.632 -16.547  29.233  0.00  0.00    +0.045 C 
ENDROOT
BRANCH  10   9
ATOM      4  C   UNL     1      -9.670 -18.220  34.446  0.00  0.00    +0.077 A 
ATOM      5  C   UNL     1      -9.589 -16.925  35.058  0.00  0.00    +0.048 A 
ATOM      6  C   UNL     1      -9.396 -15.815  34.205  0.00  0.00    +0.116 A 
ATOM      7  N   UNL     1      -9.293 -15.998  32.843  0.00  0.00    -0.223 NA
ATOM      8  C   UNL     1      -9.373 -17.261  32.285  0.00  0.00    +0.220 A 
ATOM      9  N   UNL     1      -9.280 -17.468  30.918  0.00  0.00    -0.283 N 
ATOM     36  H   UNL     1      -9.337 -18.416  30.546  0.00  0.00    +0.155 HD
ATOM     37  N   UNL     1      -9.557 -18.337  33.079  0.00  0.00    -0.214 NA
BRANCH   4   3
ATOM      1  C   UNL     1      -9.468 -20.994  37.196  0.00  0.00    +0.020 A 
ATOM      2  C   UNL     1      -9.235 -19.753  36.495  0.00  0.00    +0.013 A 
ATOM      3  C   UNL     1      -9.876 -19.489  35.213  0.00  0.00    +0.019 A 
ATOM     38  C   UNL     1     -10.755 -20.510  34.664  0.00  0.00    +0.120 A 
ATOM     39  N   UNL     1     -10.959 -21.697  35.360  0.00  0.00    -0.263 NA
ATOM     40  C   UNL     1     -10.346 -21.963  36.594  0.00  0.00    +0.111 A 
ENDBRANCH   4   3
ENDBRANCH  10   9
BRANCH  12  13
ATOM     13  N   UNL     1      -6.330 -13.976  28.953  0.00  0.00    -0.281 N 
ATOM     14  C   UNL     1      -5.671 -13.217  29.906  0.00  0.00    +0.248 C 
ATOM     30  O   UNL     1      -6.179 -12.818  30.944  0.00  0.00    -0.270 OA
ATOM     31  H   UNL     1      -5.859 -14.075  28.054  0.00  0.00    +0.155 HD
BRANCH  14  15
ATOM     15  C   UNL     1      -4.247 -12.833  29.665  0.00  0.00    +0.037 A 
ATOM     16  C   UNL     1      -3.516 -13.322  28.493  0.00  0.00    +0.013 A 
ATOM     17  C   UNL     1      -2.138 -12.950  28.293  0.00  0.00    +0.005 A 
ATOM     18  C   UNL     1      -1.482 -12.082  29.268  0.00  0.00    -0.033 A 
ATOM     28  C   UNL     1      -2.232 -11.607  30.419  0.00  0.00    +0.005 A 
ATOM     29  C   UNL     1      -3.582 -11.971  30.619  0.00  0.00    +0.013 A 
BRANCH  18  19
ATOM     19  C   UNL     1      -0.008 -11.652  29.146  0.00  0.00    +0.119 C 
BRANCH  19  20
ATOM     20  N   UNL     1       1.032 -12.691  29.410  0.00  0.00    -0.302 NA
ATOM     21  C   UNL     1       1.219 -12.949  30.908  0.00  0.00    +0.066 C 
ATOM     22  C   UNL     1       2.294 -14.054  31.165  0.00  0.00    -0.064 C 
ATOM     23  N   UNL     1       3.616 -13.637  30.519  0.00  0.00    +0.379 N 
ATOM     24  C   UNL     1       4.644 -14.646  30.809  0.00  0.00    -0.096 C 
ATOM     25  H   UNL     1       3.937 -12.681  30.994  0.00  0.00    -0.082 HD
ATOM     26  C   UNL     1       3.438 -13.375  29.030  0.00  0.00    -0.064 C 
ATOM     27  C   UNL     1       2.347 -12.296  28.784  0.00  0.00    +0.066 C 
ENDBRANCH  19  20
ENDBRANCH  18  19
ENDBRANCH  14  15
ENDBRANCH  12  13
TORSDOF 6
ENDMDL
MODEL 5
REMARK VINA RESULT:      -7.6      3.997     13.280
REMARK  Name = C:\Users\Docking\Desktop\test protocol\1iep_ligandH.pdb
REMARK  8 active torsions:
REMARK  status: ('A' for Active; 'I' for Inactive)
REMARK    1  A    between atoms: _5  and  _11
REMARK    2  A    between atoms: _19  and  _21
REMARK    3  A    between atoms: _22  and  _66
REMARK    4  A    between atoms: _27  and  _30
REMARK    5  A    between atoms: _32  and  _33
REMARK    6  A    between atoms: _38  and  _43
REMARK    7  A    between atoms: _43  and  _46
REMARK    8  A    between atoms: _53  and  _55
REMARK                            x       y       z     vdW  Elec       q    Type
REMARK                         _______ _______ _______ _____ _____    ______ ____
ROOT
ATOM     10  C   UNL     1      11.601 -18.110  22.418  0.00  0.00    +0.038 A 
ATOM     11  C   UNL     1      10.785 -17.502  23.405  0.00  0.00    +0.047 A 
ATOM     12  C   UNL     1       9.968 -18.303  24.304  0.00  0.00    +0.035 A 
ATOM     32  C   UNL     1      10.010 -19.721  24.171  0.00  0.00    +0.024 A 
ATOM     33  C   UNL     1      10.834 -20.356  23.172  0.00  0.00    +0.007 A 
ATOM     34  C   UNL     1      11.639 -19.571  22.281  0.00  0.00    -0.029 A 
ATOM     35  C   UNL     1      12.498 -20.304  21.225  0.00  0.00    +0.045 C 
ENDROOT
BRANCH  10   9
ATOM      4  C   UNL     1      15.551 -15.563  21.444  0.00  0.00    +0.077 A 
ATOM      5  C   UNL     1      16.132 -15.864  22.721  0.00  0.00    +0.048 A 
ATOM      6  C   UNL     1      15.378 -16.671  23.602  0.00  0.00    +0.116 A 
ATOM      7  N   UNL     1      14.138 -17.138  23.224  0.00  0.00    -0.223 NA
ATOM      8  C   UNL     1      13.607 -16.827  21.986  0.00  0.00    +0.220 A 
ATOM      9  N   UNL     1      12.365 -17.292  21.581  0.00  0.00    -0.283 N 
ATOM     36  H   UNL     1      12.005 -17.035  20.662  0.00  0.00    +0.155 HD
ATOM     37  N   UNL     1      14.306 -16.057  21.127  0.00  0.00    -0.214 NA
BRANCH   4   3
ATOM      1  C   UNL     1      18.153 -13.335  19.555  0.00  0.00    +0.020 A 
ATOM      2  C   UNL     1      17.546 -14.137  20.593  0.00  0.00    +0.013 A 
ATOM      3  C   UNL     1      16.226 -14.724  20.403  0.00  0.00    +0.019 A 
ATOM     38  C   UNL     1      15.542 -14.481  19.142  0.00  0.00    +0.120 A 
ATOM     39  N   UNL     1      16.151 -13.704  18.162  0.00  0.00    -0.263 NA
ATOM     40  C   UNL     1      17.420 -13.132  18.333  0.00  0.00    +0.111 A 
ENDBRANCH   4   3
ENDBRANCH  10   9
BRANCH  12  13
ATOM     13  N   UNL     1       9.114 -17.741  25.320  0.00  0.00    -0.281 N 
ATOM     14  C   UNL     1       9.422 -17.486  26.647  0.00  0.00    +0.248 C 
ATOM     30  O   UNL     1      10.419 -17.902  27.217  0.00  0.00    -0.270 OA
ATOM     31  H   UNL     1       8.166 -17.503  25.026  0.00  0.00    +0.155 HD
BRANCH  14  15
ATOM     15  C   UNL     1       8.478 -16.661  27.461  0.00  0.00    +0.037 A 
ATOM     16  C   UNL     1       7.369 -15.936  26.836  0.00  0.00    +0.013 A 
ATOM     17  C   UNL     1       6.484 -15.134  27.643  0.00  0.00    +0.005 A 
ATOM     18  C   UNL     1       6.704 -15.053  29.085  0.00  0.00    -0.033 A 
ATOM     28  C   UNL     1       7.810 -15.787  29.679  0.00  0.00    +0.005 A 
ATOM     29  C   UNL     1       8.680 -16.573  28.892  0.00  0.00    +0.013 A 
BRANCH  18  19
ATOM     19  C   UNL     1       5.823 -14.205  30.020  0.00  0.00    +0.119 C 
BRANCH  19  20
ATOM     20  N   UNL     1       4.491 -13.774  29.500  0.00  0.00    -0.302 NA
ATOM     21  C   UNL     1       4.496 -12.312  29.046  0.00  0.00    +0.066 C 
ATOM     22  C   UNL     1       3.101 -11.885  28.483  0.00  0.00    -0.064 C 
ATOM     23  N   UNL     1       2.031 -12.116  29.552  0.00  0.00    +0.379 N 
ATOM     24  C   UNL     1       0.728 -11.662  29.047  0.00  0.00    -0.096 C 
ATOM     25  H   UNL     1       2.292 -11.485  30.433  0.00  0.00    -0.082 HD
ATOM     26  C   UNL     1       2.021 -13.568  30.010  0.00  0.00    -0.064 C 
ATOM     27  C   UNL     1       3.419 -13.990  30.540  0.00  0.00    +0.066 C 
ENDBRANCH  19  20
ENDBRANCH  18  19
ENDBRANCH  14  15
ENDBRANCH  12  13
TORSDOF 6
ENDMDL
