MODEL 1
REMARK VINA RESULT:     -10.7      0.000      0.000
REMARK  Name = C:\Users\Docking\Desktop\test protocol\1iep_ligandH.pdb
REMARK  8 active torsions:
REMARK  status: ('A' for Active; 'I' for Inactive)
REMARK    1  A    between atoms: _5  and  _11
REMARK    2  A    between atoms: _19  and  _21
REMARK    3  A    between atoms: _22  and  _66
REMARK    4  A    between atoms: _27  and  _30
REMARK    5  A    between atoms: _32  and  _33
REMARK    6  A    between atoms: _38  and  _43
REMARK    7  A    between atoms: _43  and  _46
REMARK    8  A    between atoms: _53  and  _55
REMARK                            x       y       z     vdW  Elec       q    Type
REMARK                         _______ _______ _______ _____ _____    ______ ____
ROOT
ATOM     10  C   UNL     1       5.602   2.674   9.793  0.00  0.00    +0.038 A 
ATOM     11  C   UNL     1       5.150   1.548  10.527  0.00  0.00    +0.047 A 
ATOM     12  C   UNL     1       5.726   1.212  11.820  0.00  0.00    +0.035 A 
ATOM     32  C   UNL     1       6.759   2.047  12.337  0.00  0.00    +0.024 A 
ATOM     33  C   UNL     1       7.231   3.195  11.604  0.00  0.00    +0.007 A 
ATOM     34  C   UNL     1       6.669   3.530  10.327  0.00  0.00    -0.029 A 
ATOM     35  C   UNL     1       7.218   4.769   9.582  0.00  0.00    +0.045 C 
ENDROOT
BRANCH  10   9
ATOM      4  C   UNL     1       1.943   4.215   7.097  0.00  0.00    +0.077 A 
ATOM      5  C   UNL     1       1.123   4.467   8.248  0.00  0.00    +0.048 A 
ATOM      6  C   UNL     1       1.679   4.179   9.515  0.00  0.00    +0.116 A 
ATOM      7  N   UNL     1       2.959   3.678   9.612  0.00  0.00    -0.223 NA
ATOM      8  C   UNL     1       3.721   3.446   8.482  0.00  0.00    +0.220 A 
ATOM      9  N   UNL     1       5.014   2.950   8.557  0.00  0.00    -0.283 N 
ATOM     36  H   UNL     1       5.541   2.786   7.700  0.00  0.00    +0.155 HD
ATOM     37  N   UNL     1       3.213   3.711   7.261  0.00  0.00    -0.214 NA
BRANCH   4   3
ATOM      1  C   UNL     1       1.762   4.267   3.190  0.00  0.00    +0.020 A 
ATOM      2  C   UNL     1       2.235   3.992   4.527  0.00  0.00    +0.013 A 
ATOM      3  C   UNL     1       1.498   4.472   5.690  0.00  0.00    +0.019 A 
ATOM     38  C   UNL     1       0.278   5.231   5.464  0.00  0.00    +0.120 A 
ATOM     39  N   UNL     1      -0.152   5.481   4.164  0.00  0.00    -0.263 NA
ATOM     40  C   UNL     1       0.549   5.026   3.037  0.00  0.00    +0.111 A 
ENDBRANCH   4   3
ENDBRANCH  10   9
BRANCH  12  13
ATOM     13  N   UNL     1       5.313   0.077  12.607  0.00  0.00    -0.281 N 
ATOM     14  C   UNL     1       4.073  -0.158  13.178  0.00  0.00    +0.248 C 
ATOM     30  O   UNL     1       3.188   0.679  13.278  0.00  0.00    -0.270 OA
ATOM     31  H   UNL     1       6.021  -0.641  12.763  0.00  0.00    +0.155 HD
BRANCH  14  15
ATOM     15  C   UNL     1       3.778  -1.515  13.731  0.00  0.00    +0.037 A 
ATOM     16  C   UNL     1       4.761  -2.599  13.650  0.00  0.00    +0.013 A 
ATOM     17  C   UNL     1       4.444  -3.903  14.176  0.00  0.00    +0.005 A 
ATOM     18  C   UNL     1       3.138  -4.131  14.789  0.00  0.00    -0.033 A 
ATOM     28  C   UNL     1       2.183  -3.037  14.860  0.00  0.00    +0.005 A 
ATOM     29  C   UNL     1       2.490  -1.757  14.345  0.00  0.00    +0.013 A 
BRANCH  18  19
ATOM     19  C   UNL     1       2.706  -5.496  15.357  0.00  0.00    +0.119 C 
BRANCH  19  20
ATOM     20  N   UNL     1       3.768  -6.346  15.974  0.00  0.00    -0.302 NA
ATOM     21  C   UNL     1       3.379  -7.827  15.992  0.00  0.00    +0.066 C 
ATOM     22  C   UNL     1       4.511  -8.704  16.621  0.00  0.00    -0.064 C 
ATOM     23  N   UNL     1       4.812  -8.206  18.036  0.00  0.00    +0.379 N 
ATOM     24  C   UNL     1       5.834  -9.065  18.651  0.00  0.00    -0.096 C 
ATOM     25  H   UNL     1       3.878  -8.308  18.636  0.00  0.00    -0.082 HD
ATOM     26  C   UNL     1       5.196  -6.733  18.027  0.00  0.00    -0.064 C 
ATOM     27  C   UNL     1       4.078  -5.874  17.374  0.00  0.00    +0.066 C 
ENDBRANCH  19  20
ENDBRANCH  18  19
ENDBRANCH  14  15
ENDBRANCH  12  13
TORSDOF 6
ENDMDL
MODEL 2
REMARK VINA RESULT:     -10.5      0.807      1.376
REMARK  Name = C:\Users\Docking\Desktop\test protocol\1iep_ligandH.pdb
REMARK  8 active torsions:
REMARK  status: ('A' for Active; 'I' for Inactive)
REMARK    1  A    between atoms: _5  and  _11
REMARK    2  A    between atoms: _19  and  _21
REMARK    3  A    between atoms: _22  and  _66
REMARK    4  A    between atoms: _27  and  _30
REMARK    5  A    between atoms: _32  and  _33
REMARK    6  A    between atoms: _38  and  _43
REMARK    7  A    between atoms: _43  and  _46
REMARK    8  A    between atoms: _53  and  _55
REMARK                            x       y       z     vdW  Elec       q    Type
REMARK                         _______ _______ _______ _____ _____    ______ ____
ROOT
ATOM     10  C   UNL     1       5.543   2.355  10.353  0.00  0.00    +0.038 A 
ATOM     11  C   UNL     1       5.048   1.207  11.023  0.00  0.00    +0.047 A 
ATOM     12  C   UNL     1       5.665   0.727  12.250  0.00  0.00    +0.035 A 
ATOM     32  C   UNL     1       6.784   1.443  12.768  0.00  0.00    +0.024 A 
ATOM     33  C   UNL     1       7.301   2.611  12.099  0.00  0.00    +0.007 A 
ATOM     34  C   UNL     1       6.697   3.087  10.887  0.00  0.00    -0.029 A 
ATOM     35  C   UNL     1       7.297   4.341  10.209  0.00  0.00    +0.045 C 
ENDROOT
BRANCH  10   9
ATOM      4  C   UNL     1       1.783   4.166   7.982  0.00  0.00    +0.077 A 
ATOM      5  C   UNL     1       1.000   4.265   9.181  0.00  0.00    +0.048 A 
ATOM      6  C   UNL     1       1.599   3.833  10.385  0.00  0.00    +0.116 A 
ATOM      7  N   UNL     1       2.886   3.341  10.380  0.00  0.00    -0.223 NA
ATOM      8  C   UNL     1       3.613   3.256   9.206  0.00  0.00    +0.220 A 
ATOM      9  N   UNL     1       4.911   2.771   9.179  0.00  0.00    -0.283 N 
ATOM     36  H   UNL     1       5.411   2.718   8.292  0.00  0.00    +0.155 HD
ATOM     37  N   UNL     1       3.062   3.661   8.043  0.00  0.00    -0.214 NA
BRANCH   4   3
ATOM      1  C   UNL     1      -0.251   5.891   5.121  0.00  0.00    +0.020 A 
ATOM      2  C   UNL     1       0.186   5.518   6.446  0.00  0.00    +0.013 A 
ATOM      3  C   UNL     1       1.290   4.585   6.632  0.00  0.00    +0.019 A 
ATOM     38  C   UNL     1       1.935   4.042   5.446  0.00  0.00    +0.120 A 
ATOM     39  N   UNL     1       1.492   4.418   4.182  0.00  0.00    -0.263 NA
ATOM     40  C   UNL     1       0.430   5.314   3.991  0.00  0.00    +0.111 A 
ENDBRANCH   4   3
ENDBRANCH  10   9
BRANCH  12  13
ATOM     13  N   UNL     1       5.212  -0.437  12.970  0.00  0.00    -0.281 N 
ATOM     14  C   UNL     1       4.024  -0.600  13.664  0.00  0.00    +0.248 C 
ATOM     30  O   UNL     1       3.261   0.311  13.951  0.00  0.00    -0.270 OA
ATOM     31  H   UNL     1       5.843  -1.238  12.967  0.00  0.00    +0.155 HD
BRANCH  14  15
ATOM     15  C   UNL     1       3.634  -1.970  14.116  0.00  0.00    +0.037 A 
ATOM     16  C   UNL     1       2.275  -2.259  14.581  0.00  0.00    +0.013 A 
ATOM     17  C   UNL     1       1.930  -3.585  15.029  0.00  0.00    +0.005 A 
ATOM     18  C   UNL     1       2.947  -4.633  15.012  0.00  0.00    -0.033 A 
ATOM     28  C   UNL     1       4.287  -4.321  14.541  0.00  0.00    +0.005 A 
ATOM     29  C   UNL     1       4.628  -3.022  14.103  0.00  0.00    +0.013 A 
BRANCH  18  19
ATOM     19  C   UNL     1       2.674  -6.072  15.491  0.00  0.00    +0.119 C 
BRANCH  19  20
ATOM     20  N   UNL     1       3.819  -6.823  16.086  0.00  0.00    -0.302 NA
ATOM     21  C   UNL     1       3.614  -8.339  16.008  0.00  0.00    +0.066 C 
ATOM     22  C   UNL     1       4.831  -9.109  16.616  0.00  0.00    -0.064 C 
ATOM     23  N   UNL     1       5.042  -8.665  18.064  0.00  0.00    +0.379 N 
ATOM     24  C   UNL     1       6.149  -9.430  18.656  0.00  0.00    -0.096 C 
ATOM     25  H   UNL     1       4.116  -8.915  18.632  0.00  0.00    -0.082 HD
ATOM     26  C   UNL     1       5.243  -7.159  18.151  0.00  0.00    -0.064 C 
ATOM     27  C   UNL     1       4.042  -6.403  17.518  0.00  0.00    +0.066 C 
ENDBRANCH  19  20
ENDBRANCH  18  19
ENDBRANCH  14  15
ENDBRANCH  12  13
TORSDOF 6
ENDMDL
MODEL 3
REMARK VINA RESULT:     -10.5      1.357      2.128
REMARK  Name = C:\Users\Docking\Desktop\test protocol\1iep_ligandH.pdb
REMARK  8 active torsions:
REMARK  status: ('A' for Active; 'I' for Inactive)
REMARK    1  A    between atoms: _5  and  _11
REMARK    2  A    between atoms: _19  and  _21
REMARK    3  A    between atoms: _22  and  _66
REMARK    4  A    between atoms: _27  and  _30
REMARK    5  A    between atoms: _32  and  _33
REMARK    6  A    between atoms: _38  and  _43
REMARK    7  A    between atoms: _43  and  _46
REMARK    8  A    between atoms: _53  and  _55
REMARK                            x       y       z     vdW  Elec       q    Type
REMARK                         _______ _______ _______ _____ _____    ______ ____
ROOT
ATOM     10  C   UNL     1       5.421   2.651  10.360  0.00  0.00    +0.038 A 
ATOM     11  C   UNL     1       4.956   1.465  10.984  0.00  0.00    +0.047 A 
ATOM     12  C   UNL     1       5.662   0.883  12.115  0.00  0.00    +0.035 A 
ATOM     32  C   UNL     1       6.838   1.536  12.586  0.00  0.00    +0.024 A 
ATOM     33  C   UNL     1       7.326   2.742  11.962  0.00  0.00    +0.007 A 
ATOM     34  C   UNL     1       6.634   3.319  10.845  0.00  0.00    -0.029 A 
ATOM     35  C   UNL     1       7.206   4.609  10.211  0.00  0.00    +0.045 C 
ENDROOT
BRANCH  10   9
ATOM      4  C   UNL     1       4.659   3.172   5.649  0.00  0.00    +0.077 A 
ATOM      5  C   UNL     1       5.802   2.372   5.316  0.00  0.00    +0.048 A 
ATOM      6  C   UNL     1       6.564   1.851   6.386  0.00  0.00    +0.116 A 
ATOM      7  N   UNL     1       6.200   2.116   7.688  0.00  0.00    -0.223 NA
ATOM      8  C   UNL     1       5.093   2.893   7.975  0.00  0.00    +0.220 A 
ATOM      9  N   UNL     1       4.704   3.166   9.278  0.00  0.00    -0.283 N 
ATOM     36  H   UNL     1       3.885   3.749   9.447  0.00  0.00    +0.155 HD
ATOM     37  N   UNL     1       4.350   3.403   6.971  0.00  0.00    -0.214 NA
BRANCH   4   3
ATOM      1  C   UNL     1       3.329   5.112   2.524  0.00  0.00    +0.020 A 
ATOM      2  C   UNL     1       4.247   4.535   3.479  0.00  0.00    +0.013 A 
ATOM      3  C   UNL     1       3.753   3.790   4.630  0.00  0.00    +0.019 A 
ATOM     38  C   UNL     1       2.313   3.645   4.786  0.00  0.00    +0.120 A 
ATOM     39  N   UNL     1       1.454   4.212   3.851  0.00  0.00    -0.263 NA
ATOM     40  C   UNL     1       1.918   4.933   2.740  0.00  0.00    +0.111 A 
ENDBRANCH   4   3
ENDBRANCH  10   9
BRANCH  12  13
ATOM     13  N   UNL     1       5.241  -0.323  12.784  0.00  0.00    -0.281 N 
ATOM     14  C   UNL     1       4.259  -0.462  13.750  0.00  0.00    +0.248 C 
ATOM     30  O   UNL     1       3.736   0.469  14.344  0.00  0.00    -0.270 OA
ATOM     31  H   UNL     1       5.727  -1.178  12.511  0.00  0.00    +0.155 HD
BRANCH  14  15
ATOM     15  C   UNL     1       3.801  -1.836  14.122  0.00  0.00    +0.037 A 
ATOM     16  C   UNL     1       2.401  -2.106  14.456  0.00  0.00    +0.013 A 
ATOM     17  C   UNL     1       1.989  -3.436  14.828  0.00  0.00    +0.005 A 
ATOM     18  C   UNL     1       2.981  -4.508  14.865  0.00  0.00    -0.033 A 
ATOM     28  C   UNL     1       4.362  -4.214  14.523  0.00  0.00    +0.005 A 
ATOM     29  C   UNL     1       4.770  -2.911  14.160  0.00  0.00    +0.013 A 
BRANCH  18  19
ATOM     19  C   UNL     1       2.635  -5.953  15.270  0.00  0.00    +0.119 C 
BRANCH  19  20
ATOM     20  N   UNL     1       3.685  -6.730  15.995  0.00  0.00    -0.302 NA
ATOM     21  C   UNL     1       3.505  -8.241  15.820  0.00  0.00    +0.066 C 
ATOM     22  C   UNL     1       4.625  -9.037  16.565  0.00  0.00    -0.064 C 
ATOM     23  N   UNL     1       4.616  -8.659  18.047  0.00  0.00    +0.379 N 
ATOM     24  C   UNL     1       5.630  -9.449  18.762  0.00  0.00    -0.096 C 
ATOM     25  H   UNL     1       3.618  -8.935  18.461  0.00  0.00    -0.082 HD
ATOM     26  C   UNL     1       4.792  -7.158  18.230  0.00  0.00    -0.064 C 
ATOM     27  C   UNL     1       3.691  -6.375  17.461  0.00  0.00    +0.066 C 
ENDBRANCH  19  20
ENDBRANCH  18  19
ENDBRANCH  14  15
ENDBRANCH  12  13
TORSDOF 6
ENDMDL
MODEL 4
REMARK VINA RESULT:     -10.4      3.419     14.403
REMARK  Name = C:\Users\Docking\Desktop\test protocol\1iep_ligandH.pdb
REMARK  8 active torsions:
REMARK  status: ('A' for Active; 'I' for Inactive)
REMARK    1  A    between atoms: _5  and  _11
REMARK    2  A    between atoms: _19  and  _21
REMARK    3  A    between atoms: _22  and  _66
REMARK    4  A    between atoms: _27  and  _30
REMARK    5  A    between atoms: _32  and  _33
REMARK    6  A    between atoms: _38  and  _43
REMARK    7  A    between atoms: _43  and  _46
REMARK    8  A    between atoms: _53  and  _55
REMARK                            x       y       z     vdW  Elec       q    Type
REMARK                         _______ _______ _______ _____ _____    ______ ____
ROOT
ATOM     10  C   UNL     1       4.486  -7.336  17.256  0.00  0.00    +0.038 A 
ATOM     11  C   UNL     1       4.647  -6.339  16.261  0.00  0.00    +0.047 A 
ATOM     12  C   UNL     1       3.964  -5.058  16.362  0.00  0.00    +0.035 A 
ATOM     32  C   UNL     1       3.127  -4.826  17.492  0.00  0.00    +0.024 A 
ATOM     33  C   UNL     1       2.951  -5.829  18.512  0.00  0.00    +0.007 A 
ATOM     34  C   UNL     1       3.620  -7.095  18.417  0.00  0.00    -0.029 A 
ATOM     35  C   UNL     1       3.390  -8.135  19.538  0.00  0.00    +0.045 C 
ENDROOT
BRANCH  10   9
ATOM      4  C   UNL     1       8.353 -10.118  17.841  0.00  0.00    +0.077 A 
ATOM      5  C   UNL     1       9.092  -9.061  18.468  0.00  0.00    +0.048 A 
ATOM      6  C   UNL     1       8.444  -7.814  18.615  0.00  0.00    +0.116 A 
ATOM      7  N   UNL     1       7.152  -7.649  18.165  0.00  0.00    -0.223 NA
ATOM      8  C   UNL     1       6.468  -8.689  17.563  0.00  0.00    +0.220 A 
ATOM      9  N   UNL     1       5.165  -8.547  17.109  0.00  0.00    -0.283 N 
ATOM     36  H   UNL     1       4.698  -9.337  16.664  0.00  0.00    +0.155 HD
ATOM     37  N   UNL     1       7.066  -9.889  17.409  0.00  0.00    -0.214 NA
BRANCH   4   3
ATOM      1  C   UNL     1       8.841 -13.777  16.545  0.00  0.00    +0.020 A 
ATOM      2  C   UNL     1       8.272 -12.461  16.727  0.00  0.00    +0.013 A 
ATOM      3  C   UNL     1       8.900 -11.494  17.617  0.00  0.00    +0.019 A 
ATOM     38  C   UNL     1      10.114 -11.891  18.314  0.00  0.00    +0.120 A 
ATOM     39  N   UNL     1      10.639 -13.165  18.121  0.00  0.00    -0.263 NA
ATOM     40  C   UNL     1      10.042 -14.106  17.268  0.00  0.00    +0.111 A 
ENDBRANCH   4   3
ENDBRANCH  10   9
BRANCH  12  13
ATOM     13  N   UNL     1       4.083  -4.010  15.378  0.00  0.00    -0.281 N 
ATOM     14  C   UNL     1       3.127  -3.581  14.472  0.00  0.00    +0.248 C 
ATOM     30  O   UNL     1       2.090  -4.179  14.225  0.00  0.00    -0.270 OA
ATOM     31  H   UNL     1       4.981  -3.527  15.345  0.00  0.00    +0.155 HD
BRANCH  14  15
ATOM     15  C   UNL     1       3.363  -2.310  13.721  0.00  0.00    +0.037 A 
ATOM     16  C   UNL     1       4.227  -2.276  12.539  0.00  0.00    +0.013 A 
ATOM     17  C   UNL     1       4.452  -1.033  11.843  0.00  0.00    +0.005 A 
ATOM     18  C   UNL     1       3.810   0.186  12.328  0.00  0.00    -0.033 A 
ATOM     28  C   UNL     1       2.953   0.122  13.501  0.00  0.00    +0.005 A 
ATOM     29  C   UNL     1       2.731  -1.093  14.186  0.00  0.00    +0.013 A 
BRANCH  18  19
ATOM     19  C   UNL     1       4.010   1.559  11.661  0.00  0.00    +0.119 C 
BRANCH  19  20
ATOM     20  N   UNL     1       4.915   1.618  10.475  0.00  0.00    -0.302 NA
ATOM     21  C   UNL     1       6.392   1.607  10.878  0.00  0.00    +0.066 C 
ATOM     22  C   UNL     1       7.325   1.645   9.624  0.00  0.00    -0.064 C 
ATOM     23  N   UNL     1       7.001   2.885   8.789  0.00  0.00    +0.379 N 
ATOM     24  C   UNL     1       7.916   2.956   7.640  0.00  0.00    -0.096 C 
ATOM     25  H   UNL     1       7.189   3.780   9.427  0.00  0.00    -0.082 HD
ATOM     26  C   UNL     1       5.534   2.906   8.386  0.00  0.00    -0.064 C 
ATOM     27  C   UNL     1       4.615   2.837   9.638  0.00  0.00    +0.066 C 
ENDBRANCH  19  20
ENDBRANCH  18  19
ENDBRANCH  14  15
ENDBRANCH  12  13
TORSDOF 6
ENDMDL
MODEL 5
REMARK VINA RESULT:     -10.4      2.171     12.694
REMARK  Name = C:\Users\Docking\Desktop\test protocol\1iep_ligandH.pdb
REMARK  8 active torsions:
REMARK  status: ('A' for Active; 'I' for Inactive)
REMARK    1  A    between atoms: _5  and  _11
REMARK    2  A    between atoms: _19  and  _21
REMARK    3  A    between atoms: _22  and  _66
REMARK    4  A    between atoms: _27  and  _30
REMARK    5  A    between atoms: _32  and  _33
REMARK    6  A    between atoms: _38  and  _43
REMARK    7  A    between atoms: _43  and  _46
REMARK    8  A    between atoms: _53  and  _55
REMARK                            x       y       z     vdW  Elec       q    Type
REMARK                         _______ _______ _______ _____ _____    ______ ____
ROOT
ATOM     10  C   UNL     1       6.182  -3.044  14.246  0.00  0.00    +0.038 A 
ATOM     11  C   UNL     1       5.201  -2.358  13.484  0.00  0.00    +0.047 A 
ATOM     12  C   UNL     1       5.462  -1.036  12.937  0.00  0.00    +0.035 A 
ATOM     32  C   UNL     1       6.735  -0.443  13.182  0.00  0.00    +0.024 A 
ATOM     33  C   UNL     1       7.743  -1.125  13.955  0.00  0.00    +0.007 A 
ATOM     34  C   UNL     1       7.490  -2.428  14.500  0.00  0.00    -0.029 A 
ATOM     35  C   UNL     1       8.605  -3.110  15.326  0.00  0.00    +0.045 C 
ENDROOT
BRANCH  10   9
ATOM      4  C   UNL     1       3.577  -5.995  16.993  0.00  0.00    +0.077 A 
ATOM      5  C   UNL     1       2.772  -4.917  17.491  0.00  0.00    +0.048 A 
ATOM      6  C   UNL     1       3.065  -3.617  17.020  0.00  0.00    +0.116 A 
ATOM      7  N   UNL     1       4.089  -3.422  16.119  0.00  0.00    -0.223 NA
ATOM      8  C   UNL     1       4.848  -4.483  15.661  0.00  0.00    +0.220 A 
ATOM      9  N   UNL     1       5.877  -4.311  14.748  0.00  0.00    -0.283 N 
ATOM     36  H   UNL     1       6.418  -5.119  14.440  0.00  0.00    +0.155 HD
ATOM     37  N   UNL     1       4.589  -5.734  16.096  0.00  0.00    -0.214 NA
BRANCH   4   3
ATOM      1  C   UNL     1       2.955  -9.855  16.871  0.00  0.00    +0.020 A 
ATOM      2  C   UNL     1       3.130  -8.489  16.432  0.00  0.00    +0.013 A 
ATOM      3  C   UNL     1       3.388  -7.425  17.394  0.00  0.00    +0.019 A 
ATOM     38  C   UNL     1       3.465  -7.779  18.803  0.00  0.00    +0.120 A 
ATOM     39  N   UNL     1       3.291  -9.102  19.196  0.00  0.00    -0.263 NA
ATOM     40  C   UNL     1       3.040 -10.134  18.280  0.00  0.00    +0.111 A 
ENDBRANCH   4   3
ENDBRANCH  10   9
BRANCH  12  13
ATOM     13  N   UNL     1       4.503  -0.289  12.163  0.00  0.00    -0.281 N 
ATOM     14  C   UNL     1       3.476   0.517  12.627  0.00  0.00    +0.248 C 
ATOM     30  O   UNL     1       3.093   0.548  13.787  0.00  0.00    -0.270 OA
ATOM     31  H   UNL     1       4.590  -0.363  11.149  0.00  0.00    +0.155 HD
BRANCH  14  15
ATOM     15  C   UNL     1       2.763   1.407  11.661  0.00  0.00    +0.037 A 
ATOM     16  C   UNL     1       1.467   1.028  11.093  0.00  0.00    +0.013 A 
ATOM     17  C   UNL     1       0.809   1.897  10.150  0.00  0.00    +0.005 A 
ATOM     18  C   UNL     1       1.446   3.155   9.770  0.00  0.00    -0.033 A 
ATOM     28  C   UNL     1       2.729   3.509  10.353  0.00  0.00    +0.005 A 
ATOM     29  C   UNL     1       3.378   2.660  11.277  0.00  0.00    +0.013 A 
BRANCH  18  19
ATOM     19  C   UNL     1       0.825   4.134   8.755  0.00  0.00    +0.119 C 
BRANCH  19  20
ATOM     20  N   UNL     1       1.157   3.926   7.314  0.00  0.00    -0.302 NA
ATOM     21  C   UNL     1       2.646   4.146   7.030  0.00  0.00    +0.066 C 
ATOM     22  C   UNL     1       2.979   3.902   5.522  0.00  0.00    -0.064 C 
ATOM     23  N   UNL     1       2.121   4.825   4.657  0.00  0.00    +0.379 N 
ATOM     24  C   UNL     1       2.473   4.640   3.242  0.00  0.00    -0.096 C 
ATOM     25  H   UNL     1       2.371   5.876   4.933  0.00  0.00    -0.082 HD
ATOM     26  C   UNL     1       0.639   4.615   4.935  0.00  0.00    -0.064 C 
ATOM     27  C   UNL     1       0.323   4.831   6.442  0.00  0.00    +0.066 C 
ENDBRANCH  19  20
ENDBRANCH  18  19
ENDBRANCH  14  15
ENDBRANCH  12  13
TORSDOF 6
ENDMDL
