MODEL 1
REMARK VINA RESULT:      -8.6      0.000      0.000
REMARK  Name = C:\Users\Docking\Desktop\test protocol\1iep_ligandH.pdb
REMARK  8 active torsions:
REMARK  status: ('A' for Active; 'I' for Inactive)
REMARK    1  A    between atoms: _5  and  _11
REMARK    2  A    between atoms: _19  and  _21
REMARK    3  A    between atoms: _22  and  _66
REMARK    4  A    between atoms: _27  and  _30
REMARK    5  A    between atoms: _32  and  _33
REMARK    6  A    between atoms: _38  and  _43
REMARK    7  A    between atoms: _43  and  _46
REMARK    8  A    between atoms: _53  and  _55
REMARK                            x       y       z     vdW  Elec       q    Type
REMARK                         _______ _______ _______ _____ _____    ______ ____
ROOT
ATOM     10  C   UNL     1      20.365  -1.005   8.799  0.00  0.00    +0.038 A 
ATOM     11  C   UNL     1      20.835  -1.077  10.135  0.00  0.00    +0.047 A 
ATOM     12  C   UNL     1      20.192  -1.941  11.113  0.00  0.00    +0.035 A 
ATOM     32  C   UNL     1      19.073  -2.719  10.695  0.00  0.00    +0.024 A 
ATOM     33  C   UNL     1      18.581  -2.657   9.341  0.00  0.00    +0.007 A 
ATOM     34  C   UNL     1      19.210  -1.805   8.373  0.00  0.00    -0.029 A 
ATOM     35  C   UNL     1      18.636  -1.773   6.937  0.00  0.00    +0.045 C 
ENDROOT
BRANCH  10   9
ATOM      4  C   UNL     1      20.586   2.974   6.124  0.00  0.00    +0.077 A 
ATOM      5  C   UNL     1      19.274   3.390   6.528  0.00  0.00    +0.048 A 
ATOM      6  C   UNL     1      18.573   2.548   7.420  0.00  0.00    +0.116 A 
ATOM      7  N   UNL     1      19.150   1.380   7.868  0.00  0.00    -0.223 NA
ATOM      8  C   UNL     1      20.417   1.007   7.457  0.00  0.00    +0.220 A 
ATOM      9  N   UNL     1      21.020  -0.159   7.901  0.00  0.00    -0.283 N 
ATOM     36  H   UNL     1      21.953  -0.402   7.568  0.00  0.00    +0.155 HD
ATOM     37  N   UNL     1      21.107   1.793   6.604  0.00  0.00    -0.214 NA
BRANCH   4   3
ATOM      1  C   UNL     1      23.691   4.629   4.414  0.00  0.00    +0.020 A 
ATOM      2  C   UNL     1      22.899   3.859   5.345  0.00  0.00    +0.013 A 
ATOM      3  C   UNL     1      21.453   3.758   5.188  0.00  0.00    +0.019 A 
ATOM     38  C   UNL     1      20.835   4.453   4.069  0.00  0.00    +0.120 A 
ATOM     39  N   UNL     1      21.623   5.188   3.189  0.00  0.00    -0.263 NA
ATOM     40  C   UNL     1      23.015   5.293   3.331  0.00  0.00    +0.111 A 
ENDBRANCH   4   3
ENDBRANCH  10   9
BRANCH  12  13
ATOM     13  N   UNL     1      20.620  -2.050  12.486  0.00  0.00    -0.281 N 
ATOM     14  C   UNL     1      21.215  -3.134  13.109  0.00  0.00    +0.248 C 
ATOM     30  O   UNL     1      21.276  -4.257  12.631  0.00  0.00    -0.270 OA
ATOM     31  H   UNL     1      20.465  -1.227  13.069  0.00  0.00    +0.155 HD
BRANCH  14  15
ATOM     15  C   UNL     1      21.817  -2.947  14.464  0.00  0.00    +0.037 A 
ATOM     16  C   UNL     1      21.218  -2.036  15.443  0.00  0.00    +0.013 A 
ATOM     17  C   UNL     1      21.828  -1.862  16.737  0.00  0.00    +0.005 A 
ATOM     18  C   UNL     1      23.046  -2.602  17.060  0.00  0.00    -0.033 A 
ATOM     28  C   UNL     1      23.616  -3.503  16.072  0.00  0.00    +0.005 A 
ATOM     29  C   UNL     1      23.021  -3.676  14.803  0.00  0.00    +0.013 A 
BRANCH  18  19
ATOM     19  C   UNL     1      23.777  -2.462  18.408  0.00  0.00    +0.119 C 
BRANCH  19  20
ATOM     20  N   UNL     1      23.096  -3.018  19.616  0.00  0.00    -0.302 NA
ATOM     21  C   UNL     1      24.038  -3.095  20.821  0.00  0.00    +0.066 C 
ATOM     22  C   UNL     1      23.304  -3.657  22.082  0.00  0.00    -0.064 C 
ATOM     23  N   UNL     1      22.724  -5.035  21.758  0.00  0.00    +0.379 N 
ATOM     24  C   UNL     1      22.084  -5.592  22.959  0.00  0.00    -0.096 C 
ATOM     25  H   UNL     1      23.574  -5.704  21.487  0.00  0.00    -0.082 HD
ATOM     26  C   UNL     1      21.789  -4.968  20.559  0.00  0.00    -0.064 C 
ATOM     27  C   UNL     1      22.520  -4.380  19.320  0.00  0.00    +0.066 C 
ENDBRANCH  19  20
ENDBRANCH  18  19
ENDBRANCH  14  15
ENDBRANCH  12  13
TORSDOF 6
ENDMDL
MODEL 2
REMARK VINA RESULT:      -8.3      1.544      2.472
REMARK  Name = C:\Users\Docking\Desktop\test protocol\1iep_ligandH.pdb
REMARK  8 active torsions:
REMARK  status: ('A' for Active; 'I' for Inactive)
REMARK    1  A    between atoms: _5  and  _11
REMARK    2  A    between atoms: _19  and  _21
REMARK    3  A    between atoms: _22  and  _66
REMARK    4  A    between atoms: _27  and  _30
REMARK    5  A    between atoms: _32  and  _33
REMARK    6  A    between atoms: _38  and  _43
REMARK    7  A    between atoms: _43  and  _46
REMARK    8  A    between atoms: _53  and  _55
REMARK                            x       y       z     vdW  Elec       q    Type
REMARK                         _______ _______ _______ _____ _____    ______ ____
ROOT
ATOM     10  C   UNL     1      20.192  -1.058   8.519  0.00  0.00    +0.038 A 
ATOM     11  C   UNL     1      20.570  -1.142   9.884  0.00  0.00    +0.047 A 
ATOM     12  C   UNL     1      19.886  -2.041  10.800  0.00  0.00    +0.035 A 
ATOM     32  C   UNL     1      18.823  -2.843  10.292  0.00  0.00    +0.024 A 
ATOM     33  C   UNL     1      18.425  -2.770   8.908  0.00  0.00    +0.007 A 
ATOM     34  C   UNL     1      19.094  -1.883   8.000  0.00  0.00    -0.029 A 
ATOM     35  C   UNL     1      18.621  -1.841   6.529  0.00  0.00    +0.045 C 
ENDROOT
BRANCH  10   9
ATOM      4  C   UNL     1      20.543   3.053   6.067  0.00  0.00    +0.077 A 
ATOM      5  C   UNL     1      19.229   3.470   6.462  0.00  0.00    +0.048 A 
ATOM      6  C   UNL     1      18.492   2.594   7.291  0.00  0.00    +0.116 A 
ATOM      7  N   UNL     1      19.039   1.394   7.689  0.00  0.00    -0.223 NA
ATOM      8  C   UNL     1      20.309   1.021   7.289  0.00  0.00    +0.220 A 
ATOM      9  N   UNL     1      20.883  -0.178   7.684  0.00  0.00    -0.283 N 
ATOM     36  H   UNL     1      21.819  -0.419   7.361  0.00  0.00    +0.155 HD
ATOM     37  N   UNL     1      21.033   1.839   6.496  0.00  0.00    -0.214 NA
BRANCH   4   3
ATOM      1  C   UNL     1      23.701   4.819   4.580  0.00  0.00    +0.020 A 
ATOM      2  C   UNL     1      22.873   4.019   5.453  0.00  0.00    +0.013 A 
ATOM      3  C   UNL     1      21.446   3.870   5.196  0.00  0.00    +0.019 A 
ATOM     38  C   UNL     1      20.883   4.549   4.038  0.00  0.00    +0.120 A 
ATOM     39  N   UNL     1      21.705   5.314   3.216  0.00  0.00    -0.263 NA
ATOM     40  C   UNL     1      23.079   5.466   3.454  0.00  0.00    +0.111 A 
ENDBRANCH   4   3
ENDBRANCH  10   9
BRANCH  12  13
ATOM     13  N   UNL     1      20.220  -2.163  12.197  0.00  0.00    -0.281 N 
ATOM     14  C   UNL     1      20.686  -3.283  12.867  0.00  0.00    +0.248 C 
ATOM     30  O   UNL     1      20.683  -4.415  12.406  0.00  0.00    -0.270 OA
ATOM     31  H   UNL     1      20.099  -1.322  12.761  0.00  0.00    +0.155 HD
BRANCH  14  15
ATOM     15  C   UNL     1      21.219  -3.125  14.254  0.00  0.00    +0.037 A 
ATOM     16  C   UNL     1      22.658  -3.169  14.525  0.00  0.00    +0.013 A 
ATOM     17  C   UNL     1      23.144  -3.031  15.875  0.00  0.00    +0.005 A 
ATOM     18  C   UNL     1      22.189  -2.846  16.965  0.00  0.00    -0.033 A 
ATOM     28  C   UNL     1      20.767  -2.801  16.667  0.00  0.00    +0.005 A 
ATOM     29  C   UNL     1      20.287  -2.937  15.346  0.00  0.00    +0.013 A 
BRANCH  18  19
ATOM     19  C   UNL     1      22.617  -2.711  18.438  0.00  0.00    +0.119 C 
BRANCH  19  20
ATOM     20  N   UNL     1      23.424  -1.510  18.809  0.00  0.00    -0.302 NA
ATOM     21  C   UNL     1      23.742  -1.471  20.306  0.00  0.00    +0.066 C 
ATOM     22  C   UNL     1      24.605  -0.220  20.673  0.00  0.00    -0.064 C 
ATOM     23  N   UNL     1      23.868   1.049  20.242  0.00  0.00    +0.379 N 
ATOM     24  C   UNL     1      24.651   2.229  20.637  0.00  0.00    -0.096 C 
ATOM     25  H   UNL     1      22.902   1.083  20.796  0.00  0.00    -0.082 HD
ATOM     26  C   UNL     1      23.546   1.017  18.754  0.00  0.00    -0.064 C 
ATOM     27  C   UNL     1      22.713  -0.245  18.396  0.00  0.00    +0.066 C 
ENDBRANCH  19  20
ENDBRANCH  18  19
ENDBRANCH  14  15
ENDBRANCH  12  13
TORSDOF 6
ENDMDL
MODEL 3
REMARK VINA RESULT:      -8.1     13.251     17.476
REMARK  Name = C:\Users\Docking\Desktop\test protocol\1iep_ligandH.pdb
REMARK  8 active torsions:
REMARK  status: ('A' for Active; 'I' for Inactive)
REMARK    1  A    between atoms: _5  and  _11
REMARK    2  A    between atoms: _19  and  _21
REMARK    3  A    between atoms: _22  and  _66
REMARK    4  A    between atoms: _27  and  _30
REMARK    5  A    between atoms: _32  and  _33
REMARK    6  A    between atoms: _38  and  _43
REMARK    7  A    between atoms: _43  and  _46
REMARK    8  A    between atoms: _53  and  _55
REMARK                            x       y       z     vdW  Elec       q    Type
REMARK                         _______ _______ _______ _____ _____    ______ ____
ROOT
ATOM     10  C   UNL     1      27.929   9.078   1.667  0.00  0.00    +0.038 A 
ATOM     11  C   UNL     1      26.550   8.772   1.548  0.00  0.00    +0.047 A 
ATOM     12  C   UNL     1      26.090   7.395   1.449  0.00  0.00    +0.035 A 
ATOM     32  C   UNL     1      27.064   6.355   1.477  0.00  0.00    +0.024 A 
ATOM     33  C   UNL     1      28.471   6.648   1.596  0.00  0.00    +0.007 A 
ATOM     34  C   UNL     1      28.930   8.005   1.691  0.00  0.00    -0.029 A 
ATOM     35  C   UNL     1      30.450   8.261   1.811  0.00  0.00    +0.045 C 
ENDROOT
BRANCH  10   9
ATOM      4  C   UNL     1      29.186  13.266  -0.314  0.00  0.00    +0.077 A 
ATOM      5  C   UNL     1      29.094  12.733  -1.642  0.00  0.00    +0.048 A 
ATOM      6  C   UNL     1      28.728  11.375  -1.773  0.00  0.00    +0.116 A 
ATOM      7  N   UNL     1      28.473  10.616  -0.651  0.00  0.00    -0.223 NA
ATOM      8  C   UNL     1      28.573  11.161   0.616  0.00  0.00    +0.220 A 
ATOM      9  N   UNL     1      28.314  10.418   1.758  0.00  0.00    -0.283 N 
ATOM     36  H   UNL     1      28.406  10.855   2.675  0.00  0.00    +0.155 HD
ATOM     37  N   UNL     1      28.923  12.455   0.767  0.00  0.00    -0.214 NA
BRANCH   4   3
ATOM      1  C   UNL     1      30.387  16.970  -0.687  0.00  0.00    +0.020 A 
ATOM      2  C   UNL     1      30.040  15.610  -1.031  0.00  0.00    +0.013 A 
ATOM      3  C   UNL     1      29.559  14.685  -0.013  0.00  0.00    +0.019 A 
ATOM     38  C   UNL     1      29.438  15.171   1.353  0.00  0.00    +0.120 A 
ATOM     39  N   UNL     1      29.780  16.485   1.654  0.00  0.00    -0.263 NA
ATOM     40  C   UNL     1      30.246  17.385   0.684  0.00  0.00    +0.111 A 
ENDBRANCH   4   3
ENDBRANCH  10   9
BRANCH  12  13
ATOM     13  N   UNL     1      24.703   7.023   1.318  0.00  0.00    -0.281 N 
ATOM     14  C   UNL     1      24.045   5.966   1.924  0.00  0.00    +0.248 C 
ATOM     30  O   UNL     1      24.602   5.047   2.506  0.00  0.00    -0.270 OA
ATOM     31  H   UNL     1      24.139   7.611   0.705  0.00  0.00    +0.155 HD
BRANCH  14  15
ATOM     15  C   UNL     1      22.552   5.914   1.861  0.00  0.00    +0.037 A 
ATOM     16  C   UNL     1      21.794   6.849   1.027  0.00  0.00    +0.013 A 
ATOM     17  C   UNL     1      20.354   6.788   0.998  0.00  0.00    +0.005 A 
ATOM     18  C   UNL     1      19.663   5.786   1.806  0.00  0.00    -0.033 A 
ATOM     28  C   UNL     1      20.441   4.866   2.620  0.00  0.00    +0.005 A 
ATOM     29  C   UNL     1      21.852   4.924   2.652  0.00  0.00    +0.013 A 
BRANCH  18  19
ATOM     19  C   UNL     1      18.128   5.662   1.852  0.00  0.00    +0.119 C 
BRANCH  19  20
ATOM     20  N   UNL     1      17.423   5.416   0.559  0.00  0.00    -0.302 NA
ATOM     21  C   UNL     1      15.906   5.313   0.743  0.00  0.00    +0.066 C 
ATOM     22  C   UNL     1      15.182   5.078  -0.622  0.00  0.00    -0.064 C 
ATOM     23  N   UNL     1      15.735   3.812  -1.279  0.00  0.00    +0.379 N 
ATOM     24  C   UNL     1      15.016   3.557  -2.535  0.00  0.00    -0.096 C 
ATOM     25  H   UNL     1      15.531   2.958  -0.592  0.00  0.00    -0.082 HD
ATOM     26  C   UNL     1      17.243   3.906  -1.463  0.00  0.00    -0.064 C 
ATOM     27  C   UNL     1      17.951   4.168  -0.105  0.00  0.00    +0.066 C 
ENDBRANCH  19  20
ENDBRANCH  18  19
ENDBRANCH  14  15
ENDBRANCH  12  13
TORSDOF 6
ENDMDL
MODEL 4
REMARK VINA RESULT:      -8.0      3.799     15.306
REMARK  Name = C:\Users\Docking\Desktop\test protocol\1iep_ligandH.pdb
REMARK  8 active torsions:
REMARK  status: ('A' for Active; 'I' for Inactive)
REMARK    1  A    between atoms: _5  and  _11
REMARK    2  A    between atoms: _19  and  _21
REMARK    3  A    between atoms: _22  and  _66
REMARK    4  A    between atoms: _27  and  _30
REMARK    5  A    between atoms: _32  and  _33
REMARK    6  A    between atoms: _38  and  _43
REMARK    7  A    between atoms: _43  and  _46
REMARK    8  A    between atoms: _53  and  _55
REMARK                            x       y       z     vdW  Elec       q    Type
REMARK                         _______ _______ _______ _____ _____    ______ ____
ROOT
ATOM     10  C   UNL     1      22.889  -3.473  20.908  0.00  0.00    +0.038 A 
ATOM     11  C   UNL     1      22.425  -3.741  19.594  0.00  0.00    +0.047 A 
ATOM     12  C   UNL     1      22.995  -3.062  18.442  0.00  0.00    +0.035 A 
ATOM     32  C   UNL     1      24.039  -2.117  18.662  0.00  0.00    +0.024 A 
ATOM     33  C   UNL     1      24.522  -1.831  19.991  0.00  0.00    +0.007 A 
ATOM     34  C   UNL     1      23.961  -2.496  21.132  0.00  0.00    -0.029 A 
ATOM     35  C   UNL     1      24.514  -2.146  22.533  0.00  0.00    +0.045 C 
ENDROOT
BRANCH  10   9
ATOM      4  C   UNL     1      22.547  -7.264  23.831  0.00  0.00    +0.077 A 
ATOM      5  C   UNL     1      23.603  -7.958  23.151  0.00  0.00    +0.048 A 
ATOM      6  C   UNL     1      24.203  -7.307  22.050  0.00  0.00    +0.116 A 
ATOM      7  N   UNL     1      23.772  -6.056  21.666  0.00  0.00    -0.223 NA
ATOM      8  C   UNL     1      22.750  -5.416  22.342  0.00  0.00    +0.220 A 
ATOM      9  N   UNL     1      22.305  -4.154  21.978  0.00  0.00    -0.283 N 
ATOM     36  H   UNL     1      21.544  -3.718  22.498  0.00  0.00    +0.155 HD
ATOM     37  N   UNL     1      22.160  -6.016  23.396  0.00  0.00    -0.214 NA
BRANCH   4   3
ATOM      1  C   UNL     1      21.204  -7.825  27.462  0.00  0.00    +0.020 A 
ATOM      2  C   UNL     1      21.931  -7.252  26.353  0.00  0.00    +0.013 A 
ATOM      3  C   UNL     1      21.818  -7.819  25.015  0.00  0.00    +0.019 A 
ATOM     38  C   UNL     1      20.953  -8.975  24.832  0.00  0.00    +0.120 A 
ATOM     39  N   UNL     1      20.267  -9.507  25.919  0.00  0.00    -0.263 NA
ATOM     40  C   UNL     1      20.369  -8.970  27.211  0.00  0.00    +0.111 A 
ENDBRANCH   4   3
ENDBRANCH  10   9
BRANCH  12  13
ATOM     13  N   UNL     1      22.560  -3.287  17.086  0.00  0.00    -0.281 N 
ATOM     14  C   UNL     1      23.177  -4.051  16.109  0.00  0.00    +0.248 C 
ATOM     30  O   UNL     1      24.315  -4.487  16.189  0.00  0.00    -0.270 OA
ATOM     31  H   UNL     1      21.691  -2.827  16.813  0.00  0.00    +0.155 HD
BRANCH  14  15
ATOM     15  C   UNL     1      22.425  -4.365  14.855  0.00  0.00    +0.037 A 
ATOM     16  C   UNL     1      22.096  -5.745  14.492  0.00  0.00    +0.013 A 
ATOM     17  C   UNL     1      21.385  -6.021  13.268  0.00  0.00    +0.005 A 
ATOM     18  C   UNL     1      20.997  -4.912  12.400  0.00  0.00    -0.033 A 
ATOM     28  C   UNL     1      21.332  -3.552  12.788  0.00  0.00    +0.005 A 
ATOM     29  C   UNL     1      22.029  -3.278  13.985  0.00  0.00    +0.013 A 
BRANCH  18  19
ATOM     19  C   UNL     1      20.255  -5.115  11.066  0.00  0.00    +0.119 C 
BRANCH  19  20
ATOM     20  N   UNL     1      20.215  -3.958  10.123  0.00  0.00    -0.302 NA
ATOM     21  C   UNL     1      18.856  -3.252  10.136  0.00  0.00    +0.066 C 
ATOM     22  C   UNL     1      18.840  -2.031   9.160  0.00  0.00    -0.064 C 
ATOM     23  N   UNL     1      19.191  -2.504   7.749  0.00  0.00    +0.379 N 
ATOM     24  C   UNL     1      19.119  -1.368   6.818  0.00  0.00    -0.096 C 
ATOM     25  H   UNL     1      18.418  -3.244   7.438  0.00  0.00    -0.082 HD
ATOM     26  C   UNL     1      20.540  -3.209   7.727  0.00  0.00    -0.064 C 
ATOM     27  C   UNL     1      20.555  -4.403   8.722  0.00  0.00    +0.066 C 
ENDBRANCH  19  20
ENDBRANCH  18  19
ENDBRANCH  14  15
ENDBRANCH  12  13
TORSDOF 6
ENDMDL
MODEL 5
REMARK VINA RESULT:      -8.0      2.208     13.051
REMARK  Name = C:\Users\Docking\Desktop\test protocol\1iep_ligandH.pdb
REMARK  8 active torsions:
REMARK  status: ('A' for Active; 'I' for Inactive)
REMARK    1  A    between atoms: _5  and  _11
REMARK    2  A    between atoms: _19  and  _21
REMARK    3  A    between atoms: _22  and  _66
REMARK    4  A    between atoms: _27  and  _30
REMARK    5  A    between atoms: _32  and  _33
REMARK    6  A    between atoms: _38  and  _43
REMARK    7  A    between atoms: _43  and  _46
REMARK    8  A    between atoms: _53  and  _55
REMARK                            x       y       z     vdW  Elec       q    Type
REMARK                         _______ _______ _______ _____ _____    ______ ____
ROOT
ATOM     10  C   UNL     1      19.466  -2.132  14.345  0.00  0.00    +0.038 A 
ATOM     11  C   UNL     1      19.893  -1.401  13.207  0.00  0.00    +0.047 A 
ATOM     12  C   UNL     1      18.933  -0.852  12.262  0.00  0.00    +0.035 A 
ATOM     32  C   UNL     1      17.546  -1.064  12.508  0.00  0.00    +0.024 A 
ATOM     33  C   UNL     1      17.094  -1.805  13.659  0.00  0.00    +0.007 A 
ATOM     34  C   UNL     1      18.036  -2.351  14.593  0.00  0.00    -0.029 A 
ATOM     35  C   UNL     1      17.495  -3.143  15.807  0.00  0.00    +0.045 C 
ENDROOT
BRANCH  10   9
ATOM      4  C   UNL     1      22.646  -1.603  17.901  0.00  0.00    +0.077 A 
ATOM      5  C   UNL     1      22.383  -0.196  18.007  0.00  0.00    +0.048 A 
ATOM      6  C   UNL     1      21.427   0.353  17.123  0.00  0.00    +0.116 A 
ATOM      7  N   UNL     1      20.788  -0.453  16.206  0.00  0.00    -0.223 NA
ATOM      8  C   UNL     1      21.067  -1.805  16.129  0.00  0.00    +0.220 A 
ATOM      9  N   UNL     1      20.430  -2.636  15.220  0.00  0.00    -0.283 N 
ATOM     36  H   UNL     1      20.669  -3.627  15.190  0.00  0.00    +0.155 HD
ATOM     37  N   UNL     1      21.976  -2.354  16.961  0.00  0.00    -0.214 NA
BRANCH   4   3
ATOM      1  C   UNL     1      25.861  -2.552  19.916  0.00  0.00    +0.020 A 
ATOM      2  C   UNL     1      24.952  -1.810  19.073  0.00  0.00    +0.013 A 
ATOM      3  C   UNL     1      23.626  -2.331  18.768  0.00  0.00    +0.019 A 
ATOM     38  C   UNL     1      23.247  -3.615  19.335  0.00  0.00    +0.120 A 
ATOM     39  N   UNL     1      24.143  -4.309  20.142  0.00  0.00    -0.263 NA
ATOM     40  C   UNL     1      25.423  -3.818  20.442  0.00  0.00    +0.111 A 
ENDBRANCH   4   3
ENDBRANCH  10   9
BRANCH  12  13
ATOM     13  N   UNL     1      19.308  -0.108  11.085  0.00  0.00    -0.281 N 
ATOM     14  C   UNL     1      19.139  -0.471   9.758  0.00  0.00    +0.248 C 
ATOM     30  O   UNL     1      18.831  -1.592   9.383  0.00  0.00    -0.270 OA
ATOM     31  H   UNL     1      19.752   0.795  11.249  0.00  0.00    +0.155 HD
BRANCH  14  15
ATOM     15  C   UNL     1      19.358   0.556   8.695  0.00  0.00    +0.037 A 
ATOM     16  C   UNL     1      20.461   0.437   7.738  0.00  0.00    +0.013 A 
ATOM     17  C   UNL     1      20.659   1.451   6.733  0.00  0.00    +0.005 A 
ATOM     18  C   UNL     1      19.751   2.594   6.679  0.00  0.00    -0.033 A 
ATOM     28  C   UNL     1      18.662   2.685   7.638  0.00  0.00    +0.005 A 
ATOM     29  C   UNL     1      18.464   1.693   8.625  0.00  0.00    +0.013 A 
BRANCH  18  19
ATOM     19  C   UNL     1      19.900   3.733   5.654  0.00  0.00    +0.119 C 
BRANCH  19  20
ATOM     20  N   UNL     1      21.150   3.759   4.838  0.00  0.00    -0.302 NA
ATOM     21  C   UNL     1      22.299   4.461   5.568  0.00  0.00    +0.066 C 
ATOM     22  C   UNL     1      23.605   4.460   4.709  0.00  0.00    -0.064 C 
ATOM     23  N   UNL     1      23.328   5.132   3.363  0.00  0.00    +0.379 N 
ATOM     24  C   UNL     1      24.569   5.183   2.576  0.00  0.00    -0.096 C 
ATOM     25  H   UNL     1      23.013   6.181   3.568  0.00  0.00    -0.082 HD
ATOM     26  C   UNL     1      22.186   4.441   2.632  0.00  0.00    -0.064 C 
ATOM     27  C   UNL     1      20.901   4.423   3.506  0.00  0.00    +0.066 C 
ENDBRANCH  19  20
ENDBRANCH  18  19
ENDBRANCH  14  15
ENDBRANCH  12  13
TORSDOF 6
ENDMDL
