MODEL 1
REMARK VINA RESULT:      -9.2      0.000      0.000
REMARK  Name = C:\Users\Docking\Desktop\test protocol\1iep_ligandH.pdb
REMARK  8 active torsions:
REMARK  status: ('A' for Active; 'I' for Inactive)
REMARK    1  A    between atoms: _5  and  _11
REMARK    2  A    between atoms: _19  and  _21
REMARK    3  A    between atoms: _22  and  _66
REMARK    4  A    between atoms: _27  and  _30
REMARK    5  A    between atoms: _32  and  _33
REMARK    6  A    between atoms: _38  and  _43
REMARK    7  A    between atoms: _43  and  _46
REMARK    8  A    between atoms: _53  and  _55
REMARK                            x       y       z     vdW  Elec       q    Type
REMARK                         _______ _______ _______ _____ _____    ______ ____
ROOT
ATOM     10  C   UNL     1      18.353  16.914  20.393  0.00  0.00    +0.038 A 
ATOM     11  C   UNL     1      19.001  15.740  19.933  0.00  0.00    +0.047 A 
ATOM     12  C   UNL     1      20.021  15.080  20.733  0.00  0.00    +0.035 A 
ATOM     32  C   UNL     1      20.355  15.643  21.999  0.00  0.00    +0.024 A 
ATOM     33  C   UNL     1      19.706  16.837  22.482  0.00  0.00    +0.007 A 
ATOM     34  C   UNL     1      18.701  17.494  21.696  0.00  0.00    -0.029 A 
ATOM     35  C   UNL     1      18.044  18.775  22.261  0.00  0.00    +0.045 C 
ENDROOT
BRANCH  10   9
ATOM      4  C   UNL     1      16.927  20.221  17.219  0.00  0.00    +0.077 A 
ATOM      5  C   UNL     1      18.222  20.838  17.192  0.00  0.00    +0.048 A 
ATOM      6  C   UNL     1      19.225  20.279  18.015  0.00  0.00    +0.116 A 
ATOM      7  N   UNL     1      18.943  19.183  18.802  0.00  0.00    -0.223 NA
ATOM      8  C   UNL     1      17.684  18.613  18.806  0.00  0.00    +0.220 A 
ATOM      9  N   UNL     1      17.380  17.506  19.583  0.00  0.00    -0.283 N 
ATOM     36  H   UNL     1      16.437  17.120  19.564  0.00  0.00    +0.155 HD
ATOM     37  N   UNL     1      16.708  19.130  18.030  0.00  0.00    -0.214 NA
BRANCH   4   3
ATOM      1  C   UNL     1      14.561  21.035  14.213  0.00  0.00    +0.020 A 
ATOM      2  C   UNL     1      15.708  20.561  14.953  0.00  0.00    +0.013 A 
ATOM      3  C   UNL     1      15.765  20.695  16.403  0.00  0.00    +0.019 A 
ATOM     38  C   UNL     1      14.636  21.317  17.079  0.00  0.00    +0.120 A 
ATOM     39  N   UNL     1      13.546  21.765  16.339  0.00  0.00    -0.263 NA
ATOM     40  C   UNL     1      13.481  21.643  14.943  0.00  0.00    +0.111 A 
ENDBRANCH   4   3
ENDBRANCH  10   9
BRANCH  12  13
ATOM     13  N   UNL     1      20.719  13.890  20.314  0.00  0.00    -0.281 N 
ATOM     14  C   UNL     1      21.145  12.832  21.100  0.00  0.00    +0.248 C 
ATOM     30  O   UNL     1      21.180  12.848  22.322  0.00  0.00    -0.270 OA
ATOM     31  H   UNL     1      20.923  13.819  19.317  0.00  0.00    +0.155 HD
BRANCH  14  15
ATOM     15  C   UNL     1      21.615  11.580  20.432  0.00  0.00    +0.037 A 
ATOM     16  C   UNL     1      20.678  10.511  20.076  0.00  0.00    +0.013 A 
ATOM     17  C   UNL     1      21.159   9.307  19.448  0.00  0.00    +0.005 A 
ATOM     18  C   UNL     1      22.587   9.165  19.171  0.00  0.00    -0.033 A 
ATOM     28  C   UNL     1      23.493  10.243  19.530  0.00  0.00    +0.005 A 
ATOM     29  C   UNL     1      23.025  11.425  20.147  0.00  0.00    +0.013 A 
BRANCH  18  19
ATOM     19  C   UNL     1      23.192   7.906  18.523  0.00  0.00    +0.119 C 
BRANCH  19  20
ATOM     20  N   UNL     1      23.351   6.700  19.390  0.00  0.00    -0.302 NA
ATOM     21  C   UNL     1      24.421   6.903  20.466  0.00  0.00    +0.066 C 
ATOM     22  C   UNL     1      24.558   5.640  21.377  0.00  0.00    -0.064 C 
ATOM     23  N   UNL     1      24.885   4.422  20.511  0.00  0.00    +0.379 N 
ATOM     24  C   UNL     1      25.071   3.244  21.371  0.00  0.00    -0.096 C 
ATOM     25  H   UNL     1      25.853   4.623  19.997  0.00  0.00    -0.082 HD
ATOM     26  C   UNL     1      23.826   4.215  19.437  0.00  0.00    -0.064 C 
ATOM     27  C   UNL     1      23.677   5.486  18.555  0.00  0.00    +0.066 C 
ENDBRANCH  19  20
ENDBRANCH  18  19
ENDBRANCH  14  15
ENDBRANCH  12  13
TORSDOF 6
ENDMDL
MODEL 2
REMARK VINA RESULT:      -8.7      3.133     13.980
REMARK  Name = C:\Users\Docking\Desktop\test protocol\1iep_ligandH.pdb
REMARK  8 active torsions:
REMARK  status: ('A' for Active; 'I' for Inactive)
REMARK    1  A    between atoms: _5  and  _11
REMARK    2  A    between atoms: _19  and  _21
REMARK    3  A    between atoms: _22  and  _66
REMARK    4  A    between atoms: _27  and  _30
REMARK    5  A    between atoms: _32  and  _33
REMARK    6  A    between atoms: _38  and  _43
REMARK    7  A    between atoms: _43  and  _46
REMARK    8  A    between atoms: _53  and  _55
REMARK                            x       y       z     vdW  Elec       q    Type
REMARK                         _______ _______ _______ _____ _____    ______ ____
ROOT
ATOM     10  C   UNL     1      20.072  17.320  19.543  0.00  0.00    +0.038 A 
ATOM     11  C   UNL     1      18.828  17.574  18.910  0.00  0.00    +0.047 A 
ATOM     12  C   UNL     1      18.236  18.903  18.921  0.00  0.00    +0.035 A 
ATOM     32  C   UNL     1      18.940  19.951  19.583  0.00  0.00    +0.024 A 
ATOM     33  C   UNL     1      20.205  19.710  20.231  0.00  0.00    +0.007 A 
ATOM     34  C   UNL     1      20.793  18.401  20.227  0.00  0.00    -0.029 A 
ATOM     35  C   UNL     1      22.148  18.200  20.944  0.00  0.00    +0.045 C 
ENDROOT
BRANCH  10   9
ATOM      4  C   UNL     1      20.984  13.058  21.553  0.00  0.00    +0.077 A 
ATOM      5  C   UNL     1      20.393  13.454  22.799  0.00  0.00    +0.048 A 
ATOM      6  C   UNL     1      19.872  14.764  22.884  0.00  0.00    +0.116 A 
ATOM      7  N   UNL     1      19.942  15.608  21.797  0.00  0.00    -0.223 NA
ATOM      8  C   UNL     1      20.520  15.196  20.610  0.00  0.00    +0.220 A 
ATOM      9  N   UNL     1      20.595  16.026  19.502  0.00  0.00    -0.283 N 
ATOM     36  H   UNL     1      21.036  15.687  18.647  0.00  0.00    +0.155 HD
ATOM     37  N   UNL     1      21.026  13.950  20.505  0.00  0.00    -0.214 NA
BRANCH   4   3
ATOM      1  C   UNL     1      23.208   9.851  21.818  0.00  0.00    +0.020 A 
ATOM      2  C   UNL     1      22.674  11.165  22.096  0.00  0.00    +0.013 A 
ATOM      3  C   UNL     1      21.574  11.705  21.307  0.00  0.00    +0.019 A 
ATOM     38  C   UNL     1      21.031  10.883  20.236  0.00  0.00    +0.120 A 
ATOM     39  N   UNL     1      21.566   9.622  19.990  0.00  0.00    -0.263 NA
ATOM     40  C   UNL     1      22.626   9.093  20.741  0.00  0.00    +0.111 A 
ENDBRANCH   4   3
ENDBRANCH  10   9
BRANCH  12  13
ATOM     13  N   UNL     1      16.972  19.219  18.303  0.00  0.00    -0.281 N 
ATOM     14  C   UNL     1      16.735  20.073  17.238  0.00  0.00    +0.248 C 
ATOM     30  O   UNL     1      17.552  20.864  16.791  0.00  0.00    -0.270 OA
ATOM     31  H   UNL     1      16.153  18.756  18.698  0.00  0.00    +0.155 HD
BRANCH  14  15
ATOM     15  C   UNL     1      15.390  20.057  16.586  0.00  0.00    +0.037 A 
ATOM     16  C   UNL     1      14.167  19.875  17.371  0.00  0.00    +0.013 A 
ATOM     17  C   UNL     1      12.884  19.846  16.714  0.00  0.00    +0.005 A 
ATOM     18  C   UNL     1      12.818  20.001  15.263  0.00  0.00    -0.033 A 
ATOM     28  C   UNL     1      14.047  20.185  14.509  0.00  0.00    +0.005 A 
ATOM     29  C   UNL     1      15.307  20.213  15.149  0.00  0.00    +0.013 A 
BRANCH  18  19
ATOM     19  C   UNL     1      11.495  19.962  14.476  0.00  0.00    +0.119 C 
BRANCH  19  20
ATOM     20  N   UNL     1      10.873  21.272  14.118  0.00  0.00    -0.302 NA
ATOM     21  C   UNL     1       9.387  21.322  14.485  0.00  0.00    +0.066 C 
ATOM     22  C   UNL     1       8.759  22.707  14.123  0.00  0.00    -0.064 C 
ATOM     23  N   UNL     1       8.958  22.981  12.632  0.00  0.00    +0.379 N 
ATOM     24  C   UNL     1       8.317  24.256  12.277  0.00  0.00    -0.096 C 
ATOM     25  H   UNL     1       8.438  22.172  12.067  0.00  0.00    -0.082 HD
ATOM     26  C   UNL     1      10.432  22.930  12.258  0.00  0.00    -0.064 C 
ATOM     27  C   UNL     1      11.055  21.560  12.648  0.00  0.00    +0.066 C 
ENDBRANCH  19  20
ENDBRANCH  18  19
ENDBRANCH  14  15
ENDBRANCH  12  13
TORSDOF 6
ENDMDL
MODEL 3
REMARK VINA RESULT:      -8.7      3.585     12.812
REMARK  Name = C:\Users\Docking\Desktop\test protocol\1iep_ligandH.pdb
REMARK  8 active torsions:
REMARK  status: ('A' for Active; 'I' for Inactive)
REMARK    1  A    between atoms: _5  and  _11
REMARK    2  A    between atoms: _19  and  _21
REMARK    3  A    between atoms: _22  and  _66
REMARK    4  A    between atoms: _27  and  _30
REMARK    5  A    between atoms: _32  and  _33
REMARK    6  A    between atoms: _38  and  _43
REMARK    7  A    between atoms: _43  and  _46
REMARK    8  A    between atoms: _53  and  _55
REMARK                            x       y       z     vdW  Elec       q    Type
REMARK                         _______ _______ _______ _____ _____    ______ ____
ROOT
ATOM     10  C   UNL     1      19.816  17.796  19.137  0.00  0.00    +0.038 A 
ATOM     11  C   UNL     1      18.505  18.086  18.678  0.00  0.00    +0.047 A 
ATOM     12  C   UNL     1      17.990  19.446  18.681  0.00  0.00    +0.035 A 
ATOM     32  C   UNL     1      18.838  20.488  19.156  0.00  0.00    +0.024 A 
ATOM     33  C   UNL     1      20.172  20.212  19.628  0.00  0.00    +0.007 A 
ATOM     34  C   UNL     1      20.685  18.872  19.630  0.00  0.00    -0.029 A 
ATOM     35  C   UNL     1      22.120  18.633  20.153  0.00  0.00    +0.045 C 
ENDROOT
BRANCH  10   9
ATOM      4  C   UNL     1      20.733  13.599  21.276  0.00  0.00    +0.077 A 
ATOM      5  C   UNL     1      20.320  14.094  22.558  0.00  0.00    +0.048 A 
ATOM      6  C   UNL     1      19.885  15.436  22.625  0.00  0.00    +0.116 A 
ATOM      7  N   UNL     1      19.868  16.216  21.489  0.00  0.00    -0.223 NA
ATOM      8  C   UNL     1      20.275  15.708  20.269  0.00  0.00    +0.220 A 
ATOM      9  N   UNL     1      20.259  16.472  19.112  0.00  0.00    -0.283 N 
ATOM     36  H   UNL     1      20.574  16.062  18.233  0.00  0.00    +0.155 HD
ATOM     37  N   UNL     1      20.696  14.429  20.179  0.00  0.00    -0.214 NA
BRANCH   4   3
ATOM      1  C   UNL     1      22.578  10.172  21.669  0.00  0.00    +0.020 A 
ATOM      2  C   UNL     1      22.144  11.523  21.940  0.00  0.00    +0.013 A 
ATOM      3  C   UNL     1      21.216  12.201  21.043  0.00  0.00    +0.019 A 
ATOM     38  C   UNL     1      20.742  11.477  19.873  0.00  0.00    +0.120 A 
ATOM     39  N   UNL     1      21.178  10.177  19.638  0.00  0.00    -0.263 NA
ATOM     40  C   UNL     1      22.073   9.516  20.493  0.00  0.00    +0.111 A 
ENDBRANCH   4   3
ENDBRANCH  10   9
BRANCH  12  13
ATOM     13  N   UNL     1      16.666  19.800  18.234  0.00  0.00    -0.281 N 
ATOM     14  C   UNL     1      16.301  20.389  17.034  0.00  0.00    +0.248 C 
ATOM     30  O   UNL     1      17.085  20.899  16.248  0.00  0.00    -0.270 OA
ATOM     31  H   UNL     1      15.905  19.590  18.880  0.00  0.00    +0.155 HD
BRANCH  14  15
ATOM     15  C   UNL     1      14.854  20.429  16.661  0.00  0.00    +0.037 A 
ATOM     16  C   UNL     1      14.407  20.071  15.312  0.00  0.00    +0.013 A 
ATOM     17  C   UNL     1      13.007  20.135  14.973  0.00  0.00    +0.005 A 
ATOM     18  C   UNL     1      12.044  20.559  15.987  0.00  0.00    -0.033 A 
ATOM     28  C   UNL     1      12.515  20.905  17.318  0.00  0.00    +0.005 A 
ATOM     29  C   UNL     1      13.886  20.844  17.653  0.00  0.00    +0.013 A 
BRANCH  18  19
ATOM     19  C   UNL     1      10.534  20.678  15.707  0.00  0.00    +0.119 C 
BRANCH  19  20
ATOM     20  N   UNL     1       9.763  19.406  15.566  0.00  0.00    -0.302 NA
ATOM     21  C   UNL     1      10.173  18.366  16.612  0.00  0.00    +0.066 C 
ATOM     22  C   UNL     1       9.341  17.051  16.464  0.00  0.00    -0.064 C 
ATOM     23  N   UNL     1       9.518  16.495  15.050  0.00  0.00    +0.379 N 
ATOM     24  C   UNL     1       8.784  15.228  14.925  0.00  0.00    -0.096 C 
ATOM     25  H   UNL     1      10.602  16.274  14.907  0.00  0.00    -0.082 HD
ATOM     26  C   UNL     1       9.116  17.524  14.003  0.00  0.00    -0.064 C 
ATOM     27  C   UNL     1       9.928  18.838  14.178  0.00  0.00    +0.066 C 
ENDBRANCH  19  20
ENDBRANCH  18  19
ENDBRANCH  14  15
ENDBRANCH  12  13
TORSDOF 6
ENDMDL
MODEL 4
REMARK VINA RESULT:      -8.6      2.999      6.378
REMARK  Name = C:\Users\Docking\Desktop\test protocol\1iep_ligandH.pdb
REMARK  8 active torsions:
REMARK  status: ('A' for Active; 'I' for Inactive)
REMARK    1  A    between atoms: _5  and  _11
REMARK    2  A    between atoms: _19  and  _21
REMARK    3  A    between atoms: _22  and  _66
REMARK    4  A    between atoms: _27  and  _30
REMARK    5  A    between atoms: _32  and  _33
REMARK    6  A    between atoms: _38  and  _43
REMARK    7  A    between atoms: _43  and  _46
REMARK    8  A    between atoms: _53  and  _55
REMARK                            x       y       z     vdW  Elec       q    Type
REMARK                         _______ _______ _______ _____ _____    ______ ____
ROOT
ATOM     10  C   UNL     1      15.561  20.752  16.649  0.00  0.00    +0.038 A 
ATOM     11  C   UNL     1      16.150  19.554  17.128  0.00  0.00    +0.047 A 
ATOM     12  C   UNL     1      17.211  19.583  18.123  0.00  0.00    +0.035 A 
ATOM     32  C   UNL     1      17.645  20.850  18.611  0.00  0.00    +0.024 A 
ATOM     33  C   UNL     1      17.058  22.078  18.134  0.00  0.00    +0.007 A 
ATOM     34  C   UNL     1      16.013  22.055  17.150  0.00  0.00    -0.029 A 
ATOM     35  C   UNL     1      15.425  23.402  16.670  0.00  0.00    +0.045 C 
ENDROOT
BRANCH  10   9
ATOM      4  C   UNL     1      10.984  20.047  15.387  0.00  0.00    +0.077 A 
ATOM      5  C   UNL     1      10.586  19.804  16.744  0.00  0.00    +0.048 A 
ATOM      6  C   UNL     1      11.590  19.863  17.736  0.00  0.00    +0.116 A 
ATOM      7  N   UNL     1      12.893  20.145  17.385  0.00  0.00    -0.223 NA
ATOM      8  C   UNL     1      13.244  20.373  16.067  0.00  0.00    +0.220 A 
ATOM      9  N   UNL     1      14.546  20.665  15.693  0.00  0.00    -0.283 N 
ATOM     36  H   UNL     1      14.766  20.820  14.709  0.00  0.00    +0.155 HD
ATOM     37  N   UNL     1      12.303  20.321  15.101  0.00  0.00    -0.214 NA
BRANCH   4   3
ATOM      1  C   UNL     1       9.152  19.032  12.084  0.00  0.00    +0.020 A 
ATOM      2  C   UNL     1      10.090  19.009  13.182  0.00  0.00    +0.013 A 
ATOM      3  C   UNL     1      10.037  20.024  14.228  0.00  0.00    +0.019 A 
ATOM     38  C   UNL     1       9.014  21.054  14.132  0.00  0.00    +0.120 A 
ATOM     39  N   UNL     1       8.125  21.051  13.061  0.00  0.00    -0.263 NA
ATOM     40  C   UNL     1       8.167  20.081  12.049  0.00  0.00    +0.111 A 
ENDBRANCH   4   3
ENDBRANCH  10   9
BRANCH  12  13
ATOM     13  N   UNL     1      17.852  18.400  18.641  0.00  0.00    -0.281 N 
ATOM     14  C   UNL     1      19.209  18.168  18.802  0.00  0.00    +0.248 C 
ATOM     30  O   UNL     1      20.091  18.865  18.323  0.00  0.00    -0.270 OA
ATOM     31  H   UNL     1      17.231  17.642  18.923  0.00  0.00    +0.155 HD
BRANCH  14  15
ATOM     15  C   UNL     1      19.649  16.982  19.598  0.00  0.00    +0.037 A 
ATOM     16  C   UNL     1      20.988  16.917  20.188  0.00  0.00    +0.013 A 
ATOM     17  C   UNL     1      21.393  15.754  20.937  0.00  0.00    +0.005 A 
ATOM     18  C   UNL     1      20.456  14.646  21.102  0.00  0.00    -0.033 A 
ATOM     28  C   UNL     1      19.131  14.739  20.511  0.00  0.00    +0.005 A 
ATOM     29  C   UNL     1      18.731  15.877  19.775  0.00  0.00    +0.013 A 
BRANCH  18  19
ATOM     19  C   UNL     1      20.810  13.357  21.867  0.00  0.00    +0.119 C 
BRANCH  19  20
ATOM     20  N   UNL     1      21.751  12.405  21.204  0.00  0.00    -0.302 NA
ATOM     21  C   UNL     1      21.049  11.544  20.151  0.00  0.00    +0.066 C 
ATOM     22  C   UNL     1      22.052  10.570  19.452  0.00  0.00    -0.064 C 
ATOM     23  N   UNL     1      22.726   9.692  20.508  0.00  0.00    +0.379 N 
ATOM     24  C   UNL     1      23.627   8.735  19.849  0.00  0.00    -0.096 C 
ATOM     25  H   UNL     1      21.927   9.107  21.021  0.00  0.00    -0.082 HD
ATOM     26  C   UNL     1      23.424  10.541  21.561  0.00  0.00    -0.064 C 
ATOM     27  C   UNL     1      22.424  11.526  22.229  0.00  0.00    +0.066 C 
ENDBRANCH  19  20
ENDBRANCH  18  19
ENDBRANCH  14  15
ENDBRANCH  12  13
TORSDOF 6
ENDMDL
MODEL 5
REMARK VINA RESULT:      -8.4      8.157     10.762
REMARK  Name = C:\Users\Docking\Desktop\test protocol\1iep_ligandH.pdb
REMARK  8 active torsions:
REMARK  status: ('A' for Active; 'I' for Inactive)
REMARK    1  A    between atoms: _5  and  _11
REMARK    2  A    between atoms: _19  and  _21
REMARK    3  A    between atoms: _22  and  _66
REMARK    4  A    between atoms: _27  and  _30
REMARK    5  A    between atoms: _32  and  _33
REMARK    6  A    between atoms: _38  and  _43
REMARK    7  A    between atoms: _43  and  _46
REMARK    8  A    between atoms: _53  and  _55
REMARK                            x       y       z     vdW  Elec       q    Type
REMARK                         _______ _______ _______ _____ _____    ______ ____
ROOT
ATOM     10  C   UNL     1      14.130  20.424  14.882  0.00  0.00    +0.038 A 
ATOM     11  C   UNL     1      15.331  20.249  15.617  0.00  0.00    +0.047 A 
ATOM     12  C   UNL     1      16.395  21.239  15.567  0.00  0.00    +0.035 A 
ATOM     32  C   UNL     1      16.201  22.399  14.761  0.00  0.00    +0.024 A 
ATOM     33  C   UNL     1      14.987  22.593  14.007  0.00  0.00    +0.007 A 
ATOM     34  C   UNL     1      13.935  21.617  14.050  0.00  0.00    -0.029 A 
ATOM     35  C   UNL     1      12.658  21.874  13.216  0.00  0.00    +0.045 C 
ENDROOT
BRANCH  10   9
ATOM      4  C   UNL     1      10.249  18.490  16.940  0.00  0.00    +0.077 A 
ATOM      5  C   UNL     1      10.203  19.510  17.948  0.00  0.00    +0.048 A 
ATOM      6  C   UNL     1      11.200  20.510  17.906  0.00  0.00    +0.116 A 
ATOM      7  N   UNL     1      12.167  20.482  16.925  0.00  0.00    -0.223 NA
ATOM      8  C   UNL     1      12.183  19.484  15.968  0.00  0.00    +0.220 A 
ATOM      9  N   UNL     1      13.141  19.441  14.967  0.00  0.00    -0.283 N 
ATOM     36  H   UNL     1      13.124  18.684  14.284  0.00  0.00    +0.155 HD
ATOM     37  N   UNL     1      11.243  18.517  15.987  0.00  0.00    -0.214 NA
BRANCH   4   3
ATOM      1  C   UNL     1       8.146  15.466  15.625  0.00  0.00    +0.020 A 
ATOM      2  C   UNL     1       9.114  16.538  15.661  0.00  0.00    +0.013 A 
ATOM      3  C   UNL     1       9.262  17.368  16.850  0.00  0.00    +0.019 A 
ATOM     38  C   UNL     1       8.411  17.083  17.995  0.00  0.00    +0.120 A 
ATOM     39  N   UNL     1       7.487  16.045  17.931  0.00  0.00    -0.263 NA
ATOM     40  C   UNL     1       7.333  15.241  16.792  0.00  0.00    +0.111 A 
ENDBRANCH   4   3
ENDBRANCH  10   9
BRANCH  12  13
ATOM     13  N   UNL     1      17.639  21.112  16.284  0.00  0.00    -0.281 N 
ATOM     14  C   UNL     1      17.828  21.045  17.655  0.00  0.00    +0.248 C 
ATOM     30  O   UNL     1      16.969  21.300  18.485  0.00  0.00    -0.270 OA
ATOM     31  H   UNL     1      18.482  21.065  15.712  0.00  0.00    +0.155 HD
BRANCH  14  15
ATOM     15  C   UNL     1      19.171  20.650  18.180  0.00  0.00    +0.037 A 
ATOM     16  C   UNL     1      19.555  19.242  18.303  0.00  0.00    +0.013 A 
ATOM     17  C   UNL     1      20.851  18.889  18.828  0.00  0.00    +0.005 A 
ATOM     18  C   UNL     1      21.772  19.948  19.233  0.00  0.00    -0.033 A 
ATOM     28  C   UNL     1      21.367  21.337  19.095  0.00  0.00    +0.005 A 
ATOM     29  C   UNL     1      20.098  21.687  18.581  0.00  0.00    +0.013 A 
BRANCH  18  19
ATOM     19  C   UNL     1      23.166  19.663  19.823  0.00  0.00    +0.119 C 
BRANCH  19  20
ATOM     20  N   UNL     1      23.668  20.598  20.874  0.00  0.00    -0.302 NA
ATOM     21  C   UNL     1      25.123  21.009  20.631  0.00  0.00    +0.066 C 
ATOM     22  C   UNL     1      25.624  22.005  21.726  0.00  0.00    -0.064 C 
ATOM     23  N   UNL     1      25.466  21.363  23.106  0.00  0.00    +0.379 N 
ATOM     24  C   UNL     1      25.990  22.274  24.134  0.00  0.00    -0.096 C 
ATOM     25  H   UNL     1      26.090  20.439  23.122  0.00  0.00    -0.082 HD
ATOM     26  C   UNL     1      24.022  20.949  23.355  0.00  0.00    -0.064 C 
ATOM     27  C   UNL     1      23.525  19.983  22.244  0.00  0.00    +0.066 C 
ENDBRANCH  19  20
ENDBRANCH  18  19
ENDBRANCH  14  15
ENDBRANCH  12  13
TORSDOF 6
ENDMDL
