MODEL 1
REMARK VINA RESULT:      -8.8      0.000      0.000
REMARK  Name = C:\Users\Docking\Desktop\test protocol\1iep_ligandH.pdb
REMARK  8 active torsions:
REMARK  status: ('A' for Active; 'I' for Inactive)
REMARK    1  A    between atoms: _5  and  _11
REMARK    2  A    between atoms: _19  and  _21
REMARK    3  A    between atoms: _22  and  _66
REMARK    4  A    between atoms: _27  and  _30
REMARK    5  A    between atoms: _32  and  _33
REMARK    6  A    between atoms: _38  and  _43
REMARK    7  A    between atoms: _43  and  _46
REMARK    8  A    between atoms: _53  and  _55
REMARK                            x       y       z     vdW  Elec       q    Type
REMARK                         _______ _______ _______ _____ _____    ______ ____
ROOT
ATOM     10  C   UNL     1      -8.927  18.252 -15.103  0.00  0.00    +0.038 A 
ATOM     11  C   UNL     1      -7.562  17.873 -15.045  0.00  0.00    +0.047 A 
ATOM     12  C   UNL     1      -7.158  16.487 -15.223  0.00  0.00    +0.035 A 
ATOM     32  C   UNL     1      -8.171  15.513 -15.462  0.00  0.00    +0.024 A 
ATOM     33  C   UNL     1      -9.563  15.882 -15.524  0.00  0.00    +0.007 A 
ATOM     34  C   UNL     1      -9.968  17.247 -15.346  0.00  0.00    -0.029 A 
ATOM     35  C   UNL     1     -11.476  17.583 -15.416  0.00  0.00    +0.045 C 
ENDROOT
BRANCH  10   9
ATOM      4  C   UNL     1     -10.229  21.961 -12.349  0.00  0.00    +0.077 A 
ATOM      5  C   UNL     1     -10.279  21.145 -11.171  0.00  0.00    +0.048 A 
ATOM      6  C   UNL     1      -9.970  19.774 -11.317  0.00  0.00    +0.116 A 
ATOM      7  N   UNL     1      -9.636  19.268 -12.555  0.00  0.00    -0.223 NA
ATOM      8  C   UNL     1      -9.599  20.083 -13.672  0.00  0.00    +0.220 A 
ATOM      9  N   UNL     1      -9.258  19.597 -14.925  0.00  0.00    -0.283 N 
ATOM     36  H   UNL     1      -9.249  20.229 -15.725  0.00  0.00    +0.155 HD
ATOM     37  N   UNL     1      -9.892  21.395 -13.558  0.00  0.00    -0.214 NA
BRANCH   4   3
ATOM      1  C   UNL     1     -10.264  25.767 -11.446  0.00  0.00    +0.020 A 
ATOM      2  C   UNL     1      -9.944  24.359 -11.396  0.00  0.00    +0.013 A 
ATOM      3  C   UNL     1     -10.526  23.429 -12.355  0.00  0.00    +0.019 A 
ATOM     38  C   UNL     1     -11.435  23.960 -13.360  0.00  0.00    +0.120 A 
ATOM     39  N   UNL     1     -11.726  25.320 -13.382  0.00  0.00    -0.263 NA
ATOM     40  C   UNL     1     -11.173  26.225 -12.464  0.00  0.00    +0.111 A 
ENDBRANCH   4   3
ENDBRANCH  10   9
BRANCH  12  13
ATOM     13  N   UNL     1      -5.788  16.041 -15.166  0.00  0.00    -0.281 N 
ATOM     14  C   UNL     1      -4.773  16.288 -16.076  0.00  0.00    +0.248 C 
ATOM     30  O   UNL     1      -4.944  16.755 -17.193  0.00  0.00    -0.270 OA
ATOM     31  H   UNL     1      -5.535  15.474 -14.356  0.00  0.00    +0.155 HD
BRANCH  14  15
ATOM     15  C   UNL     1      -3.366  15.955 -15.697  0.00  0.00    +0.037 A 
ATOM     16  C   UNL     1      -3.011  14.630 -15.183  0.00  0.00    +0.013 A 
ATOM     17  C   UNL     1      -1.649  14.341 -14.808  0.00  0.00    +0.005 A 
ATOM     18  C   UNL     1      -0.632  15.380 -14.949  0.00  0.00    -0.033 A 
ATOM     28  C   UNL     1      -1.011  16.684 -15.467  0.00  0.00    +0.005 A 
ATOM     29  C   UNL     1      -2.344  16.971 -15.834  0.00  0.00    +0.013 A 
BRANCH  18  19
ATOM     19  C   UNL     1       0.842  15.166 -14.554  0.00  0.00    +0.119 C 
BRANCH  19  20
ATOM     20  N   UNL     1       1.117  14.711 -13.159  0.00  0.00    -0.302 NA
ATOM     21  C   UNL     1       2.048  15.672 -12.414  0.00  0.00    +0.066 C 
ATOM     22  C   UNL     1       2.307  15.192 -10.949  0.00  0.00    -0.064 C 
ATOM     23  N   UNL     1       2.893  13.780 -10.973  0.00  0.00    +0.379 N 
ATOM     24  C   UNL     1       3.192  13.349  -9.600  0.00  0.00    -0.096 C 
ATOM     25  H   UNL     1       3.857  13.824 -11.531  0.00  0.00    -0.082 HD
ATOM     26  C   UNL     1       1.975  12.818 -11.714  0.00  0.00    -0.064 C 
ATOM     27  C   UNL     1       1.700  13.320 -13.160  0.00  0.00    +0.066 C 
ENDBRANCH  19  20
ENDBRANCH  18  19
ENDBRANCH  14  15
ENDBRANCH  12  13
TORSDOF 6
ENDMDL
MODEL 2
REMARK VINA RESULT:      -8.7      1.194      1.592
REMARK  Name = C:\Users\Docking\Desktop\test protocol\1iep_ligandH.pdb
REMARK  8 active torsions:
REMARK  status: ('A' for Active; 'I' for Inactive)
REMARK    1  A    between atoms: _5  and  _11
REMARK    2  A    between atoms: _19  and  _21
REMARK    3  A    between atoms: _22  and  _66
REMARK    4  A    between atoms: _27  and  _30
REMARK    5  A    between atoms: _32  and  _33
REMARK    6  A    between atoms: _38  and  _43
REMARK    7  A    between atoms: _43  and  _46
REMARK    8  A    between atoms: _53  and  _55
REMARK                            x       y       z     vdW  Elec       q    Type
REMARK                         _______ _______ _______ _____ _____    ______ ____
ROOT
ATOM     10  C   UNL     1      -8.967  18.205 -15.137  0.00  0.00    +0.038 A 
ATOM     11  C   UNL     1      -7.589  17.874 -15.086  0.00  0.00    +0.047 A 
ATOM     12  C   UNL     1      -7.140  16.499 -15.241  0.00  0.00    +0.035 A 
ATOM     32  C   UNL     1      -8.122  15.487 -15.451  0.00  0.00    +0.024 A 
ATOM     33  C   UNL     1      -9.527  15.806 -15.504  0.00  0.00    +0.007 A 
ATOM     34  C   UNL     1      -9.976  17.160 -15.348  0.00  0.00    -0.029 A 
ATOM     35  C   UNL     1     -11.495  17.444 -15.408  0.00  0.00    +0.045 C 
ENDROOT
BRANCH  10   9
ATOM      4  C   UNL     1     -10.271  21.948 -12.429  0.00  0.00    +0.077 A 
ATOM      5  C   UNL     1     -10.226  21.168 -11.225  0.00  0.00    +0.048 A 
ATOM      6  C   UNL     1      -9.870  19.806 -11.347  0.00  0.00    +0.116 A 
ATOM      7  N   UNL     1      -9.582  19.274 -12.585  0.00  0.00    -0.223 NA
ATOM      8  C   UNL     1      -9.636  20.054 -13.726  0.00  0.00    +0.220 A 
ATOM      9  N   UNL     1      -9.342  19.542 -14.981  0.00  0.00    -0.283 N 
ATOM     36  H   UNL     1      -9.401  20.147 -15.799  0.00  0.00    +0.155 HD
ATOM     37  N   UNL     1      -9.975  21.357 -13.637  0.00  0.00    -0.214 NA
BRANCH   4   3
ATOM      1  C   UNL     1     -10.523  25.751 -11.549  0.00  0.00    +0.020 A 
ATOM      2  C   UNL     1     -10.151  24.357 -11.470  0.00  0.00    +0.013 A 
ATOM      3  C   UNL     1     -10.627  23.401 -12.462  0.00  0.00    +0.019 A 
ATOM     38  C   UNL     1     -11.485  23.893 -13.530  0.00  0.00    +0.120 A 
ATOM     39  N   UNL     1     -11.828  25.240 -13.580  0.00  0.00    -0.263 NA
ATOM     40  C   UNL     1     -11.377  26.168 -12.629  0.00  0.00    +0.111 A 
ENDBRANCH   4   3
ENDBRANCH  10   9
BRANCH  12  13
ATOM     13  N   UNL     1      -5.755  16.101 -15.191  0.00  0.00    -0.281 N 
ATOM     14  C   UNL     1      -4.767  16.334 -16.133  0.00  0.00    +0.248 C 
ATOM     30  O   UNL     1      -4.975  16.737 -17.268  0.00  0.00    -0.270 OA
ATOM     31  H   UNL     1      -5.468  15.585 -14.359  0.00  0.00    +0.155 HD
BRANCH  14  15
ATOM     15  C   UNL     1      -3.342  16.067 -15.768  0.00  0.00    +0.037 A 
ATOM     16  C   UNL     1      -2.951  14.825 -15.095  0.00  0.00    +0.013 A 
ATOM     17  C   UNL     1      -1.572  14.600 -14.738  0.00  0.00    +0.005 A 
ATOM     18  C   UNL     1      -0.575  15.619 -15.055  0.00  0.00    -0.033 A 
ATOM     28  C   UNL     1      -0.990  16.839 -15.727  0.00  0.00    +0.005 A 
ATOM     29  C   UNL     1      -2.340  17.064 -16.077  0.00  0.00    +0.013 A 
BRANCH  18  19
ATOM     19  C   UNL     1       0.915  15.473 -14.692  0.00  0.00    +0.119 C 
BRANCH  19  20
ATOM     20  N   UNL     1       1.460  16.396 -13.653  0.00  0.00    -0.302 NA
ATOM     21  C   UNL     1       2.388  17.455 -14.255  0.00  0.00    +0.066 C 
ATOM     22  C   UNL     1       2.931  18.427 -13.157  0.00  0.00    -0.064 C 
ATOM     23  N   UNL     1       3.657  17.620 -12.079  0.00  0.00    +0.379 N 
ATOM     24  C   UNL     1       4.219  18.535 -11.076  0.00  0.00    -0.096 C 
ATOM     25  H   UNL     1       4.507  17.091 -12.569  0.00  0.00    -0.082 HD
ATOM     26  C   UNL     1       2.742  16.563 -11.477  0.00  0.00    -0.064 C 
ATOM     27  C   UNL     1       2.185  15.620 -12.581  0.00  0.00    +0.066 C 
ENDBRANCH  19  20
ENDBRANCH  18  19
ENDBRANCH  14  15
ENDBRANCH  12  13
TORSDOF 6
ENDMDL
MODEL 3
REMARK VINA RESULT:      -8.5      9.351     14.271
REMARK  Name = C:\Users\Docking\Desktop\test protocol\1iep_ligandH.pdb
REMARK  8 active torsions:
REMARK  status: ('A' for Active; 'I' for Inactive)
REMARK    1  A    between atoms: _5  and  _11
REMARK    2  A    between atoms: _19  and  _21
REMARK    3  A    between atoms: _22  and  _66
REMARK    4  A    between atoms: _27  and  _30
REMARK    5  A    between atoms: _32  and  _33
REMARK    6  A    between atoms: _38  and  _43
REMARK    7  A    between atoms: _43  and  _46
REMARK    8  A    between atoms: _53  and  _55
REMARK                            x       y       z     vdW  Elec       q    Type
REMARK                         _______ _______ _______ _____ _____    ______ ____
ROOT
ATOM     10  C   UNL     1     -19.592  17.408 -19.475  0.00  0.00    +0.038 A 
ATOM     11  C   UNL     1     -18.246  17.532 -19.044  0.00  0.00    +0.047 A 
ATOM     12  C   UNL     1     -17.525  18.789 -19.179  0.00  0.00    +0.035 A 
ATOM     32  C   UNL     1     -18.207  19.900 -19.756  0.00  0.00    +0.024 A 
ATOM     33  C   UNL     1     -19.574  19.791 -20.201  0.00  0.00    +0.007 A 
ATOM     34  C   UNL     1     -20.289  18.553 -20.072  0.00  0.00    -0.029 A 
ATOM     35  C   UNL     1     -21.752  18.492 -20.572  0.00  0.00    +0.045 C 
ENDROOT
BRANCH  10   9
ATOM      4  C   UNL     1     -21.071  13.165 -21.161  0.00  0.00    +0.077 A 
ATOM      5  C   UNL     1     -20.540  13.431 -22.466  0.00  0.00    +0.048 A 
ATOM      6  C   UNL     1     -19.899  14.675 -22.665  0.00  0.00    +0.116 A 
ATOM      7  N   UNL     1     -19.803  15.577 -21.627  0.00  0.00    -0.223 NA
ATOM      8  C   UNL     1     -20.328  15.289 -20.381  0.00  0.00    +0.220 A 
ATOM      9  N   UNL     1     -20.235  16.178 -19.321  0.00  0.00    -0.283 N 
ATOM     36  H   UNL     1     -20.642  15.932 -18.419  0.00  0.00    +0.155 HD
ATOM     37  N   UNL     1     -20.945  14.109 -20.166  0.00  0.00    -0.214 NA
BRANCH   4   3
ATOM      1  C   UNL     1     -23.525  10.592 -19.531  0.00  0.00    +0.020 A 
ATOM      2  C   UNL     1     -22.881  11.845 -19.850  0.00  0.00    +0.013 A 
ATOM      3  C   UNL     1     -21.773  11.894 -20.794  0.00  0.00    +0.019 A 
ATOM     38  C   UNL     1     -21.336  10.647 -21.404  0.00  0.00    +0.120 A 
ATOM     39  N   UNL     1     -21.974   9.454 -21.076  0.00  0.00    -0.263 NA
ATOM     40  C   UNL     1     -23.041   9.395 -20.167  0.00  0.00    +0.111 A 
ENDBRANCH   4   3
ENDBRANCH  10   9
BRANCH  12  13
ATOM     13  N   UNL     1     -16.156  18.972 -18.767  0.00  0.00    -0.281 N 
ATOM     14  C   UNL     1     -15.670  19.804 -17.771  0.00  0.00    +0.248 C 
ATOM     30  O   UNL     1     -16.323  20.681 -17.224  0.00  0.00    -0.270 OA
ATOM     31  H   UNL     1     -15.460  18.422 -19.270  0.00  0.00    +0.155 HD
BRANCH  14  15
ATOM     15  C   UNL     1     -14.251  19.649 -17.329  0.00  0.00    +0.037 A 
ATOM     16  C   UNL     1     -13.195  19.284 -18.277  0.00  0.00    +0.013 A 
ATOM     17  C   UNL     1     -11.837  19.124 -17.821  0.00  0.00    +0.005 A 
ATOM     18  C   UNL     1     -11.527  19.331 -16.409  0.00  0.00    -0.033 A 
ATOM     28  C   UNL     1     -12.593  19.697 -15.491  0.00  0.00    +0.005 A 
ATOM     29  C   UNL     1     -13.925  19.853 -15.934  0.00  0.00    +0.013 A 
BRANCH  18  19
ATOM     19  C   UNL     1     -10.110  19.161 -15.830  0.00  0.00    +0.119 C 
BRANCH  19  20
ATOM     20  N   UNL     1      -9.698  20.099 -14.744  0.00  0.00    -0.302 NA
ATOM     21  C   UNL     1      -9.505  21.528 -15.261  0.00  0.00    +0.066 C 
ATOM     22  C   UNL     1      -9.096  22.500 -14.107  0.00  0.00    -0.064 C 
ATOM     23  N   UNL     1      -7.818  21.988 -13.441  0.00  0.00    +0.379 N 
ATOM     24  C   UNL     1      -7.399  22.931 -12.394  0.00  0.00    -0.096 C 
ATOM     25  H   UNL     1      -7.018  21.967 -14.217  0.00  0.00    -0.082 HD
ATOM     26  C   UNL     1      -8.000  20.568 -12.926  0.00  0.00    -0.064 C 
ATOM     27  C   UNL     1      -8.435  19.615 -14.075  0.00  0.00    +0.066 C 
ENDBRANCH  19  20
ENDBRANCH  18  19
ENDBRANCH  14  15
ENDBRANCH  12  13
TORSDOF 6
ENDMDL
MODEL 4
REMARK VINA RESULT:      -8.4     18.756     24.005
REMARK  Name = C:\Users\Docking\Desktop\test protocol\1iep_ligandH.pdb
REMARK  8 active torsions:
REMARK  status: ('A' for Active; 'I' for Inactive)
REMARK    1  A    between atoms: _5  and  _11
REMARK    2  A    between atoms: _19  and  _21
REMARK    3  A    between atoms: _22  and  _66
REMARK    4  A    between atoms: _27  and  _30
REMARK    5  A    between atoms: _32  and  _33
REMARK    6  A    between atoms: _38  and  _43
REMARK    7  A    between atoms: _43  and  _46
REMARK    8  A    between atoms: _53  and  _55
REMARK                            x       y       z     vdW  Elec       q    Type
REMARK                         _______ _______ _______ _____ _____    ______ ____
ROOT
ATOM     10  C   UNL     1      -5.564   2.293   0.622  0.00  0.00    +0.038 A 
ATOM     11  C   UNL     1      -6.893   2.666   0.296  0.00  0.00    +0.047 A 
ATOM     12  C   UNL     1      -8.025   1.845   0.698  0.00  0.00    +0.035 A 
ATOM     32  C   UNL     1      -7.767   0.652   1.434  0.00  0.00    +0.024 A 
ATOM     33  C   UNL     1      -6.422   0.258   1.773  0.00  0.00    +0.007 A 
ATOM     34  C   UNL     1      -5.301   1.062   1.377  0.00  0.00    -0.029 A 
ATOM     35  C   UNL     1      -3.881   0.587   1.763  0.00  0.00    +0.045 C 
ENDROOT
BRANCH  10   9
ATOM      4  C   UNL     1      -1.951   3.386  -2.343  0.00  0.00    +0.077 A 
ATOM      5  C   UNL     1      -2.154   2.200  -3.123  0.00  0.00    +0.048 A 
ATOM      6  C   UNL     1      -3.194   1.331  -2.724  0.00  0.00    +0.116 A 
ATOM      7  N   UNL     1      -3.967   1.636  -1.625  0.00  0.00    -0.223 NA
ATOM      8  C   UNL     1      -3.744   2.788  -0.893  0.00  0.00    +0.220 A 
ATOM      9  N   UNL     1      -4.514   3.118   0.211  0.00  0.00    -0.283 N 
ATOM     36  H   UNL     1      -4.313   3.973   0.729  0.00  0.00    +0.155 HD
ATOM     37  N   UNL     1      -2.756   3.633  -1.253  0.00  0.00    -0.214 NA
BRANCH   4   3
ATOM      1  C   UNL     1      -0.144   6.715  -3.320  0.00  0.00    +0.020 A 
ATOM      2  C   UNL     1      -1.202   5.770  -3.045  0.00  0.00    +0.013 A 
ATOM      3  C   UNL     1      -0.894   4.405  -2.640  0.00  0.00    +0.019 A 
ATOM     38  C   UNL     1       0.505   4.023  -2.522  0.00  0.00    +0.120 A 
ATOM     39  N   UNL     1       1.503   4.954  -2.795  0.00  0.00    -0.263 NA
ATOM     40  C   UNL     1       1.219   6.271  -3.187  0.00  0.00    +0.111 A 
ENDBRANCH   4   3
ENDBRANCH  10   9
BRANCH  12  13
ATOM     13  N   UNL     1      -9.395   2.169   0.388  0.00  0.00    -0.281 N 
ATOM     14  C   UNL     1     -10.434   1.296   0.109  0.00  0.00    +0.248 C 
ATOM     30  O   UNL     1     -10.292   0.105  -0.126  0.00  0.00    -0.270 OA
ATOM     31  H   UNL     1      -9.628   3.162   0.372  0.00  0.00    +0.155 HD
BRANCH  14  15
ATOM     15  C   UNL     1     -11.832   1.825   0.073  0.00  0.00    +0.037 A 
ATOM     16  C   UNL     1     -12.099   3.254  -0.110  0.00  0.00    +0.013 A 
ATOM     17  C   UNL     1     -13.456   3.740  -0.123  0.00  0.00    +0.005 A 
ATOM     18  C   UNL     1     -14.557   2.794   0.045  0.00  0.00    -0.033 A 
ATOM     28  C   UNL     1     -14.263   1.382   0.219  0.00  0.00    +0.005 A 
ATOM     29  C   UNL     1     -12.935   0.902   0.235  0.00  0.00    +0.013 A 
BRANCH  18  19
ATOM     19  C   UNL     1     -16.035   3.227   0.064  0.00  0.00    +0.119 C 
BRANCH  19  20
ATOM     20  N   UNL     1     -17.048   2.221  -0.375  0.00  0.00    -0.302 NA
ATOM     21  C   UNL     1     -17.896   2.732  -1.542  0.00  0.00    +0.066 C 
ATOM     22  C   UNL     1     -18.935   1.659  -2.003  0.00  0.00    -0.064 C 
ATOM     23  N   UNL     1     -19.822   1.269  -0.819  0.00  0.00    +0.379 N 
ATOM     24  C   UNL     1     -20.837   0.303  -1.263  0.00  0.00    -0.096 C 
ATOM     25  H   UNL     1     -20.354   2.187  -0.479  0.00  0.00    -0.082 HD
ATOM     26  C   UNL     1     -18.985   0.762   0.347  0.00  0.00    -0.064 C 
ATOM     27  C   UNL     1     -17.937   1.825   0.779  0.00  0.00    +0.066 C 
ENDBRANCH  19  20
ENDBRANCH  18  19
ENDBRANCH  14  15
ENDBRANCH  12  13
TORSDOF 6
ENDMDL
MODEL 5
REMARK VINA RESULT:      -8.2      9.491     14.431
REMARK  Name = C:\Users\Docking\Desktop\test protocol\1iep_ligandH.pdb
REMARK  8 active torsions:
REMARK  status: ('A' for Active; 'I' for Inactive)
REMARK    1  A    between atoms: _5  and  _11
REMARK    2  A    between atoms: _19  and  _21
REMARK    3  A    between atoms: _22  and  _66
REMARK    4  A    between atoms: _27  and  _30
REMARK    5  A    between atoms: _32  and  _33
REMARK    6  A    between atoms: _38  and  _43
REMARK    7  A    between atoms: _43  and  _46
REMARK    8  A    between atoms: _53  and  _55
REMARK                            x       y       z     vdW  Elec       q    Type
REMARK                         _______ _______ _______ _____ _____    ______ ____
ROOT
ATOM     10  C   UNL     1     -19.971  17.637 -19.521  0.00  0.00    +0.038 A 
ATOM     11  C   UNL     1     -18.705  17.981 -18.982  0.00  0.00    +0.047 A 
ATOM     12  C   UNL     1     -18.179  19.332 -19.099  0.00  0.00    +0.035 A 
ATOM     32  C   UNL     1     -18.971  20.310 -19.769  0.00  0.00    +0.024 A 
ATOM     33  C   UNL     1     -20.260  19.977 -20.324  0.00  0.00    +0.007 A 
ATOM     34  C   UNL     1     -20.782  18.645 -20.214  0.00  0.00    -0.029 A 
ATOM     35  C   UNL     1     -22.167  18.344 -20.834  0.00  0.00    +0.045 C 
ENDROOT
BRANCH  10   9
ATOM      4  C   UNL     1     -20.830  13.245 -21.257  0.00  0.00    +0.077 A 
ATOM      5  C   UNL     1     -20.355  13.604 -22.563  0.00  0.00    +0.048 A 
ATOM      6  C   UNL     1     -19.905  14.931 -22.747  0.00  0.00    +0.116 A 
ATOM      7  N   UNL     1     -19.932  15.823 -21.698  0.00  0.00    -0.223 NA
ATOM      8  C   UNL     1     -20.398  15.445 -20.452  0.00  0.00    +0.220 A 
ATOM      9  N   UNL     1     -20.427  16.324 -19.380  0.00  0.00    -0.283 N 
ATOM     36  H   UNL     1     -20.784  16.009 -18.479  0.00  0.00    +0.155 HD
ATOM     37  N   UNL     1     -20.834  14.185 -20.250  0.00  0.00    -0.214 NA
BRANCH   4   3
ATOM      1  C   UNL     1     -21.352   9.805 -19.471  0.00  0.00    +0.020 A 
ATOM      2  C   UNL     1     -20.830  11.118 -19.769  0.00  0.00    +0.013 A 
ATOM      3  C   UNL     1     -21.335  11.881 -20.904  0.00  0.00    +0.019 A 
ATOM     38  C   UNL     1     -22.377  11.281 -21.723  0.00  0.00    +0.120 A 
ATOM     39  N   UNL     1     -22.860  10.014 -21.413  0.00  0.00    -0.263 NA
ATOM     40  C   UNL     1     -22.380   9.270 -20.324  0.00  0.00    +0.111 A 
ENDBRANCH   4   3
ENDBRANCH  10   9
BRANCH  12  13
ATOM     13  N   UNL     1     -16.897  19.738 -18.578  0.00  0.00    -0.281 N 
ATOM     14  C   UNL     1     -16.631  20.397 -17.389  0.00  0.00    +0.248 C 
ATOM     30  O   UNL     1     -17.479  20.930 -16.689  0.00  0.00    -0.270 OA
ATOM     31  H   UNL     1     -16.088  19.512 -19.156  0.00  0.00    +0.155 HD
BRANCH  14  15
ATOM     15  C   UNL     1     -15.216  20.490 -16.916  0.00  0.00    +0.037 A 
ATOM     16  C   UNL     1     -14.886  20.438 -15.490  0.00  0.00    +0.013 A 
ATOM     17  C   UNL     1     -13.515  20.547 -15.060  0.00  0.00    +0.005 A 
ATOM     18  C   UNL     1     -12.462  20.707 -16.059  0.00  0.00    -0.033 A 
ATOM     28  C   UNL     1     -12.816  20.750 -17.468  0.00  0.00    +0.005 A 
ATOM     29  C   UNL     1     -14.159  20.645 -17.893  0.00  0.00    +0.013 A 
BRANCH  18  19
ATOM     19  C   UNL     1     -10.973  20.853 -15.690  0.00  0.00    +0.119 C 
BRANCH  19  20
ATOM     20  N   UNL     1     -10.270  19.632 -15.194  0.00  0.00    -0.302 NA
ATOM     21  C   UNL     1      -8.892  19.960 -14.613  0.00  0.00    +0.066 C 
ATOM     22  C   UNL     1      -8.179  18.676 -14.077  0.00  0.00    -0.064 C 
ATOM     23  N   UNL     1      -8.060  17.653 -15.209  0.00  0.00    +0.379 N 
ATOM     24  C   UNL     1      -7.339  16.467 -14.724  0.00  0.00    -0.096 C 
ATOM     25  H   UNL     1      -7.448  18.114 -16.018  0.00  0.00    -0.082 HD
ATOM     26  C   UNL     1      -9.426  17.323 -15.794  0.00  0.00    -0.064 C 
ATOM     27  C   UNL     1     -10.138  18.611 -16.296  0.00  0.00    +0.066 C 
ENDBRANCH  19  20
ENDBRANCH  18  19
ENDBRANCH  14  15
ENDBRANCH  12  13
TORSDOF 6
ENDMDL
