MODEL 1
REMARK VINA RESULT:      -1.1      0.000      0.000
REMARK  Name = C:\Users\Docking\Desktop\test protocol\1iep_ligandH.pdb
REMARK  8 active torsions:
REMARK  status: ('A' for Active; 'I' for Inactive)
REMARK    1  A    between atoms: _5  and  _11
REMARK    2  A    between atoms: _19  and  _21
REMARK    3  A    between atoms: _22  and  _66
REMARK    4  A    between atoms: _27  and  _30
REMARK    5  A    between atoms: _32  and  _33
REMARK    6  A    between atoms: _38  and  _43
REMARK    7  A    between atoms: _43  and  _46
REMARK    8  A    between atoms: _53  and  _55
REMARK                            x       y       z     vdW  Elec       q    Type
REMARK                         _______ _______ _______ _____ _____    ______ ____
ROOT
ATOM     10  C   UNL     1      10.190   2.718   0.028  0.00  0.00    +0.038 A 
ATOM     11  C   UNL     1      11.408   2.929  -0.667  0.00  0.00    +0.047 A 
ATOM     12  C   UNL     1      12.606   3.369   0.031  0.00  0.00    +0.035 A 
ATOM     32  C   UNL     1      12.528   3.581   1.439  0.00  0.00    +0.024 A 
ATOM     33  C   UNL     1      11.297   3.371   2.161  0.00  0.00    +0.007 A 
ATOM     34  C   UNL     1      10.112   2.940   1.477  0.00  0.00    -0.029 A 
ATOM     35  C   UNL     1       8.819   2.738   2.300  0.00  0.00    +0.045 C 
ENDROOT
BRANCH  10   9
ATOM      4  C   UNL     1       6.328   3.587  -2.688  0.00  0.00    +0.077 A 
ATOM      5  C   UNL     1       6.545   5.005  -2.645  0.00  0.00    +0.048 A 
ATOM      6  C   UNL     1       7.657   5.470  -1.907  0.00  0.00    +0.116 A 
ATOM      7  N   UNL     1       8.484   4.575  -1.265  0.00  0.00    -0.223 NA
ATOM      8  C   UNL     1       8.246   3.214  -1.325  0.00  0.00    +0.220 A 
ATOM      9  N   UNL     1       9.070   2.295  -0.693  0.00  0.00    -0.283 N 
ATOM     36  H   UNL     1       8.856   1.300  -0.755  0.00  0.00    +0.155 HD
ATOM     37  N   UNL     1       7.190   2.745  -2.021  0.00  0.00    -0.214 NA
BRANCH   4   3
ATOM      1  C   UNL     1       3.400   2.934  -5.197  0.00  0.00    +0.020 A 
ATOM      2  C   UNL     1       4.484   3.602  -4.514  0.00  0.00    +0.013 A 
ATOM      3  C   UNL     1       5.198   2.942  -3.428  0.00  0.00    +0.019 A 
ATOM     38  C   UNL     1       4.788   1.597  -3.055  0.00  0.00    +0.120 A 
ATOM     39  N   UNL     1       3.740   0.980  -3.730  0.00  0.00    -0.263 NA
ATOM     40  C   UNL     1       3.044   1.605  -4.776  0.00  0.00    +0.111 A 
ENDBRANCH   4   3
ENDBRANCH  10   9
BRANCH  12  13
ATOM     13  N   UNL     1      13.868   3.608  -0.622  0.00  0.00    -0.281 N 
ATOM     14  C   UNL     1      14.887   2.701  -0.865  0.00  0.00    +0.248 C 
ATOM     30  O   UNL     1      14.956   1.589  -0.364  0.00  0.00    -0.270 OA
ATOM     31  H   UNL     1      14.031   4.562  -0.945  0.00  0.00    +0.155 HD
BRANCH  14  15
ATOM     15  C   UNL     1      15.997   3.092  -1.787  0.00  0.00    +0.037 A 
ATOM     16  C   UNL     1      17.129   3.895  -1.316  0.00  0.00    +0.013 A 
ATOM     17  C   UNL     1      18.178   4.272  -2.229  0.00  0.00    +0.005 A 
ATOM     18  C   UNL     1      18.100   3.845  -3.624  0.00  0.00    -0.033 A 
ATOM     28  C   UNL     1      16.969   3.045  -4.064  0.00  0.00    +0.005 A 
ATOM     29  C   UNL     1      15.938   2.674  -3.171  0.00  0.00    +0.013 A 
BRANCH  18  19
ATOM     19  C   UNL     1      19.164   4.219  -4.674  0.00  0.00    +0.119 C 
BRANCH  19  20
ATOM     20  N   UNL     1      20.483   3.526  -4.587  0.00  0.00    -0.302 NA
ATOM     21  C   UNL     1      20.349   2.099  -4.048  0.00  0.00    +0.066 C 
ATOM     22  C   UNL     1      21.736   1.381  -3.985  0.00  0.00    -0.064 C 
ATOM     23  N   UNL     1      22.692   2.200  -3.117  0.00  0.00    +0.379 N 
ATOM     24  C   UNL     1      23.980   1.498  -3.009  0.00  0.00    -0.096 C 
ATOM     25  H   UNL     1      22.253   2.260  -2.094  0.00  0.00    -0.082 HD
ATOM     26  C   UNL     1      22.830   3.621  -3.645  0.00  0.00    -0.064 C 
ATOM     27  C   UNL     1      21.442   4.316  -3.731  0.00  0.00    +0.066 C 
ENDBRANCH  19  20
ENDBRANCH  18  19
ENDBRANCH  14  15
ENDBRANCH  12  13
TORSDOF 6
ENDMDL
MODEL 2
REMARK VINA RESULT:      -1.1      2.599     13.230
REMARK  Name = C:\Users\Docking\Desktop\test protocol\1iep_ligandH.pdb
REMARK  8 active torsions:
REMARK  status: ('A' for Active; 'I' for Inactive)
REMARK    1  A    between atoms: _5  and  _11
REMARK    2  A    between atoms: _19  and  _21
REMARK    3  A    between atoms: _22  and  _66
REMARK    4  A    between atoms: _27  and  _30
REMARK    5  A    between atoms: _32  and  _33
REMARK    6  A    between atoms: _38  and  _43
REMARK    7  A    between atoms: _43  and  _46
REMARK    8  A    between atoms: _53  and  _55
REMARK                            x       y       z     vdW  Elec       q    Type
REMARK                         _______ _______ _______ _____ _____    ______ ____
ROOT
ATOM     10  C   UNL     1      17.866   3.575  -0.276  0.00  0.00    +0.038 A 
ATOM     11  C   UNL     1      16.617   4.112  -0.677  0.00  0.00    +0.047 A 
ATOM     12  C   UNL     1      15.371   3.422  -0.382  0.00  0.00    +0.035 A 
ATOM     32  C   UNL     1      15.434   2.187   0.327  0.00  0.00    +0.024 A 
ATOM     33  C   UNL     1      16.696   1.626   0.742  0.00  0.00    +0.007 A 
ATOM     34  C   UNL     1      17.928   2.301   0.451  0.00  0.00    -0.029 A 
ATOM     35  C   UNL     1      19.252   1.649   0.914  0.00  0.00    +0.045 C 
ENDROOT
BRANCH  10   9
ATOM      4  C   UNL     1      21.482   4.685  -3.231  0.00  0.00    +0.077 A 
ATOM      5  C   UNL     1      21.026   3.764  -4.231  0.00  0.00    +0.048 A 
ATOM      6  C   UNL     1      19.861   3.018  -3.943  0.00  0.00    +0.116 A 
ATOM      7  N   UNL     1      19.209   3.189  -2.741  0.00  0.00    -0.223 NA
ATOM      8  C   UNL     1      19.676   4.085  -1.798  0.00  0.00    +0.220 A 
ATOM      9  N   UNL     1      19.032   4.280  -0.586  0.00  0.00    -0.283 N 
ATOM     36  H   UNL     1      19.412   4.945   0.087  0.00  0.00    +0.155 HD
ATOM     37  N   UNL     1      20.787   4.809  -2.048  0.00  0.00    -0.214 NA
BRANCH   4   3
ATOM      1  C   UNL     1      24.745   6.315  -4.644  0.00  0.00    +0.020 A 
ATOM      2  C   UNL     1      23.586   5.459  -4.539  0.00  0.00    +0.013 A 
ATOM      3  C   UNL     1      22.695   5.548  -3.389  0.00  0.00    +0.019 A 
ATOM     38  C   UNL     1      23.008   6.522  -2.354  0.00  0.00    +0.120 A 
ATOM     39  N   UNL     1      24.131   7.332  -2.481  0.00  0.00    -0.263 NA
ATOM     40  C   UNL     1      24.997   7.255  -3.583  0.00  0.00    +0.111 A 
ENDBRANCH   4   3
ENDBRANCH  10   9
BRANCH  12  13
ATOM     13  N   UNL     1      14.073   3.915  -0.771  0.00  0.00    -0.281 N 
ATOM     14  C   UNL     1      13.426   3.745  -1.984  0.00  0.00    +0.248 C 
ATOM     30  O   UNL     1      13.959   3.320  -2.998  0.00  0.00    -0.270 OA
ATOM     31  H   UNL     1      13.570   4.456  -0.067  0.00  0.00    +0.155 HD
BRANCH  14  15
ATOM     15  C   UNL     1      11.981   4.112  -2.090  0.00  0.00    +0.037 A 
ATOM     16  C   UNL     1      11.500   5.011  -3.143  0.00  0.00    +0.013 A 
ATOM     17  C   UNL     1      10.104   5.363  -3.211  0.00  0.00    +0.005 A 
ATOM     18  C   UNL     1       9.178   4.814  -2.224  0.00  0.00    -0.033 A 
ATOM     28  C   UNL     1       9.681   3.921  -1.193  0.00  0.00    +0.005 A 
ATOM     29  C   UNL     1      11.049   3.575  -1.122  0.00  0.00    +0.013 A 
BRANCH  18  19
ATOM     19  C   UNL     1       7.675   5.152  -2.208  0.00  0.00    +0.119 C 
BRANCH  19  20
ATOM     20  N   UNL     1       6.811   4.381  -1.267  0.00  0.00    -0.302 NA
ATOM     21  C   UNL     1       5.772   3.532  -2.005  0.00  0.00    +0.066 C 
ATOM     22  C   UNL     1       4.891   2.714  -1.006  0.00  0.00    -0.064 C 
ATOM     23  N   UNL     1       4.210   3.673  -0.028  0.00  0.00    +0.379 N 
ATOM     24  C   UNL     1       3.335   2.912   0.877  0.00  0.00    -0.096 C 
ATOM     25  H   UNL     1       3.565   4.361  -0.622  0.00  0.00    -0.082 HD
ATOM     26  C   UNL     1       5.236   4.523   0.709  0.00  0.00    -0.064 C 
ATOM     27  C   UNL     1       6.125   5.309  -0.294  0.00  0.00    +0.066 C 
ENDBRANCH  19  20
ENDBRANCH  18  19
ENDBRANCH  14  15
ENDBRANCH  12  13
TORSDOF 6
ENDMDL
MODEL 3
REMARK VINA RESULT:      -1.0      5.143     11.906
REMARK  Name = C:\Users\Docking\Desktop\test protocol\1iep_ligandH.pdb
REMARK  8 active torsions:
REMARK  status: ('A' for Active; 'I' for Inactive)
REMARK    1  A    between atoms: _5  and  _11
REMARK    2  A    between atoms: _19  and  _21
REMARK    3  A    between atoms: _22  and  _66
REMARK    4  A    between atoms: _27  and  _30
REMARK    5  A    between atoms: _32  and  _33
REMARK    6  A    between atoms: _38  and  _43
REMARK    7  A    between atoms: _43  and  _46
REMARK    8  A    between atoms: _53  and  _55
REMARK                            x       y       z     vdW  Elec       q    Type
REMARK                         _______ _______ _______ _____ _____    ______ ____
ROOT
ATOM     10  C   UNL     1      15.640   0.873   1.036  0.00  0.00    +0.038 A 
ATOM     11  C   UNL     1      14.420   1.252   0.421  0.00  0.00    +0.047 A 
ATOM     12  C   UNL     1      14.365   2.355  -0.526  0.00  0.00    +0.035 A 
ATOM     32  C   UNL     1      15.574   3.048  -0.826  0.00  0.00    +0.024 A 
ATOM     33  C   UNL     1      16.823   2.677  -0.209  0.00  0.00    +0.007 A 
ATOM     34  C   UNL     1      16.883   1.592   0.728  0.00  0.00    -0.029 A 
ATOM     35  C   UNL     1      18.248   1.241   1.363  0.00  0.00    +0.045 C 
ENDROOT
BRANCH  10   9
ATOM      4  C   UNL     1      15.116  -0.933   5.452  0.00  0.00    +0.077 A 
ATOM      5  C   UNL     1      14.857   0.362   6.015  0.00  0.00    +0.048 A 
ATOM      6  C   UNL     1      14.875   1.467   5.135  0.00  0.00    +0.116 A 
ATOM      7  N   UNL     1      15.134   1.280   3.794  0.00  0.00    -0.223 NA
ATOM      8  C   UNL     1      15.381   0.019   3.284  0.00  0.00    +0.220 A 
ATOM      9  N   UNL     1      15.635  -0.193   1.938  0.00  0.00    -0.283 N 
ATOM     36  H   UNL     1      15.820  -1.138   1.603  0.00  0.00    +0.155 HD
ATOM     37  N   UNL     1      15.371  -1.053   4.104  0.00  0.00    -0.214 NA
BRANCH   4   3
ATOM      1  C   UNL     1      14.877  -3.482   8.410  0.00  0.00    +0.020 A 
ATOM      2  C   UNL     1      14.853  -2.233   7.683  0.00  0.00    +0.013 A 
ATOM      3  C   UNL     1      15.129  -2.198   6.253  0.00  0.00    +0.019 A 
ATOM     38  C   UNL     1      15.427  -3.454   5.581  0.00  0.00    +0.120 A 
ATOM     39  N   UNL     1      15.445  -4.641   6.307  0.00  0.00    -0.263 NA
ATOM     40  C   UNL     1      15.183  -4.687   7.684  0.00  0.00    +0.111 A 
ENDBRANCH   4   3
ENDBRANCH  10   9
BRANCH  12  13
ATOM     13  N   UNL     1      13.154   2.790  -1.176  0.00  0.00    -0.281 N 
ATOM     14  C   UNL     1      12.176   3.635  -0.676  0.00  0.00    +0.248 C 
ATOM     30  O   UNL     1      12.089   3.976   0.494  0.00  0.00    -0.270 OA
ATOM     31  H   UNL     1      12.998   2.433  -2.118  0.00  0.00    +0.155 HD
BRANCH  14  15
ATOM     15  C   UNL     1      11.135   4.165  -1.608  0.00  0.00    +0.037 A 
ATOM     16  C   UNL     1      11.504   4.878  -2.834  0.00  0.00    +0.013 A 
ATOM     17  C   UNL     1      10.480   5.394  -3.707  0.00  0.00    +0.005 A 
ATOM     18  C   UNL     1       9.075   5.198  -3.357  0.00  0.00    -0.033 A 
ATOM     28  C   UNL     1       8.737   4.483  -2.138  0.00  0.00    +0.005 A 
ATOM     29  C   UNL     1       9.738   3.976  -1.279  0.00  0.00    +0.013 A 
BRANCH  18  19
ATOM     19  C   UNL     1       7.916   5.733  -4.219  0.00  0.00    +0.119 C 
BRANCH  19  20
ATOM     20  N   UNL     1       6.980   6.705  -3.579  0.00  0.00    -0.302 NA
ATOM     21  C   UNL     1       5.782   7.025  -4.477  0.00  0.00    +0.066 C 
ATOM     22  C   UNL     1       4.801   8.025  -3.782  0.00  0.00    -0.064 C 
ATOM     23  N   UNL     1       5.558   9.302  -3.412  0.00  0.00    +0.379 N 
ATOM     24  C   UNL     1       4.626  10.268  -2.812  0.00  0.00    -0.096 C 
ATOM     25  H   UNL     1       5.947   9.750  -4.356  0.00  0.00    -0.082 HD
ATOM     26  C   UNL     1       6.752   8.993  -2.522  0.00  0.00    -0.064 C 
ATOM     27  C   UNL     1       7.705   7.975  -3.209  0.00  0.00    +0.066 C 
ENDBRANCH  19  20
ENDBRANCH  18  19
ENDBRANCH  14  15
ENDBRANCH  12  13
TORSDOF 6
ENDMDL
MODEL 4
REMARK VINA RESULT:      -0.9      2.558      3.167
REMARK  Name = C:\Users\Docking\Desktop\test protocol\1iep_ligandH.pdb
REMARK  8 active torsions:
REMARK  status: ('A' for Active; 'I' for Inactive)
REMARK    1  A    between atoms: _5  and  _11
REMARK    2  A    between atoms: _19  and  _21
REMARK    3  A    between atoms: _22  and  _66
REMARK    4  A    between atoms: _27  and  _30
REMARK    5  A    between atoms: _32  and  _33
REMARK    6  A    between atoms: _38  and  _43
REMARK    7  A    between atoms: _43  and  _46
REMARK    8  A    between atoms: _53  and  _55
REMARK                            x       y       z     vdW  Elec       q    Type
REMARK                         _______ _______ _______ _____ _____    ______ ____
ROOT
ATOM     10  C   UNL     1       8.995   2.343   0.208  0.00  0.00    +0.038 A 
ATOM     11  C   UNL     1      10.247   2.890  -0.175  0.00  0.00    +0.047 A 
ATOM     12  C   UNL     1      11.441   2.061  -0.242  0.00  0.00    +0.035 A 
ATOM     32  C   UNL     1      11.323   0.679   0.085  0.00  0.00    +0.024 A 
ATOM     33  C   UNL     1      10.059   0.107   0.477  0.00  0.00    +0.007 A 
ATOM     34  C   UNL     1       8.878   0.920   0.548  0.00  0.00    -0.029 A 
ATOM     35  C   UNL     1       7.551   0.255   0.980  0.00  0.00    +0.045 C 
ENDROOT
BRANCH  10   9
ATOM      4  C   UNL     1       5.169   4.419  -1.815  0.00  0.00    +0.077 A 
ATOM      5  C   UNL     1       5.426   3.795  -3.081  0.00  0.00    +0.048 A 
ATOM      6  C   UNL     1       6.557   2.953  -3.171  0.00  0.00    +0.116 A 
ATOM      7  N   UNL     1       7.364   2.756  -2.071  0.00  0.00    -0.223 NA
ATOM      8  C   UNL     1       7.089   3.374  -0.866  0.00  0.00    +0.220 A 
ATOM      9  N   UNL     1       7.882   3.185   0.256  0.00  0.00    -0.283 N 
ATOM     36  H   UNL     1       7.649   3.665   1.125  0.00  0.00    +0.155 HD
ATOM     37  N   UNL     1       6.015   4.184  -0.754  0.00  0.00    -0.214 NA
BRANCH   4   3
ATOM      1  C   UNL     1       2.281   7.011  -2.305  0.00  0.00    +0.020 A 
ATOM      2  C   UNL     1       3.399   6.145  -2.604  0.00  0.00    +0.013 A 
ATOM      3  C   UNL     1       4.011   5.333  -1.560  0.00  0.00    +0.019 A 
ATOM     38  C   UNL     1       3.465   5.420  -0.214  0.00  0.00    +0.120 A 
ATOM     39  N   UNL     1       2.389   6.264   0.044  0.00  0.00    -0.263 NA
ATOM     40  C   UNL     1       1.793   7.052  -0.952  0.00  0.00    +0.111 A 
ENDBRANCH   4   3
ENDBRANCH  10   9
BRANCH  12  13
ATOM     13  N   UNL     1      12.740   2.562  -0.616  0.00  0.00    -0.281 N 
ATOM     14  C   UNL     1      13.745   3.029   0.216  0.00  0.00    +0.248 C 
ATOM     30  O   UNL     1      13.596   3.287   1.401  0.00  0.00    -0.270 OA
ATOM     31  H   UNL     1      12.944   2.574  -1.615  0.00  0.00    +0.155 HD
BRANCH  14  15
ATOM     15  C   UNL     1      15.108   3.255  -0.354  0.00  0.00    +0.037 A 
ATOM     16  C   UNL     1      15.316   4.156  -1.491  0.00  0.00    +0.013 A 
ATOM     17  C   UNL     1      16.639   4.343  -2.033  0.00  0.00    +0.005 A 
ATOM     18  C   UNL     1      17.764   3.628  -1.437  0.00  0.00    -0.033 A 
ATOM     28  C   UNL     1      17.530   2.745  -0.306  0.00  0.00    +0.005 A 
ATOM     29  C   UNL     1      16.235   2.558   0.227  0.00  0.00    +0.013 A 
BRANCH  18  19
ATOM     19  C   UNL     1      19.207   3.751  -1.963  0.00  0.00    +0.119 C 
BRANCH  19  20
ATOM     20  N   UNL     1      20.206   2.765  -1.454  0.00  0.00    -0.302 NA
ATOM     21  C   UNL     1      21.204   3.406  -0.485  0.00  0.00    +0.066 C 
ATOM     22  C   UNL     1      22.228   2.356   0.054  0.00  0.00    -0.064 C 
ATOM     23  N   UNL     1      22.958   1.708  -1.123  0.00  0.00    +0.379 N 
ATOM     24  C   UNL     1      23.963   0.762  -0.617  0.00  0.00    -0.096 C 
ATOM     25  H   UNL     1      23.498   2.515  -1.671  0.00  0.00    -0.082 HD
ATOM     26  C   UNL     1      21.974   1.070  -2.094  0.00  0.00    -0.064 C 
ATOM     27  C   UNL     1      20.942   2.116  -2.601  0.00  0.00    +0.066 C 
ENDBRANCH  19  20
ENDBRANCH  18  19
ENDBRANCH  14  15
ENDBRANCH  12  13
TORSDOF 6
ENDMDL
MODEL 5
REMARK VINA RESULT:      -0.9      5.060      7.620
REMARK  Name = C:\Users\Docking\Desktop\test protocol\1iep_ligandH.pdb
REMARK  8 active torsions:
REMARK  status: ('A' for Active; 'I' for Inactive)
REMARK    1  A    between atoms: _5  and  _11
REMARK    2  A    between atoms: _19  and  _21
REMARK    3  A    between atoms: _22  and  _66
REMARK    4  A    between atoms: _27  and  _30
REMARK    5  A    between atoms: _32  and  _33
REMARK    6  A    between atoms: _38  and  _43
REMARK    7  A    between atoms: _43  and  _46
REMARK    8  A    between atoms: _53  and  _55
REMARK                            x       y       z     vdW  Elec       q    Type
REMARK                         _______ _______ _______ _____ _____    ______ ____
ROOT
ATOM     10  C   UNL     1      15.527   0.412   1.504  0.00  0.00    +0.038 A 
ATOM     11  C   UNL     1      16.815   1.007   1.506  0.00  0.00    +0.047 A 
ATOM     12  C   UNL     1      18.019   0.193   1.452  0.00  0.00    +0.035 A 
ATOM     32  C   UNL     1      17.875  -1.224   1.394  0.00  0.00    +0.024 A 
ATOM     33  C   UNL     1      16.574  -1.845   1.393  0.00  0.00    +0.007 A 
ATOM     34  C   UNL     1      15.383  -1.048   1.448  0.00  0.00    -0.029 A 
ATOM     35  C   UNL     1      14.014  -1.768   1.450  0.00  0.00    +0.045 C 
ENDROOT
BRANCH  10   9
ATOM      4  C   UNL     1      12.180   3.142  -0.589  0.00  0.00    +0.077 A 
ATOM      5  C   UNL     1      12.730   2.920  -1.895  0.00  0.00    +0.048 A 
ATOM      6  C   UNL     1      13.879   2.103  -1.984  0.00  0.00    +0.116 A 
ATOM      7  N   UNL     1      14.428   1.554  -0.845  0.00  0.00    -0.223 NA
ATOM      8  C   UNL     1      13.873   1.790   0.399  0.00  0.00    +0.220 A 
ATOM      9  N   UNL     1      14.404   1.241   1.556  0.00  0.00    -0.283 N 
ATOM     36  H   UNL     1      13.970   1.445   2.456  0.00  0.00    +0.155 HD
ATOM     37  N   UNL     1      12.777   2.568   0.511  0.00  0.00    -0.214 NA
BRANCH   4   3
ATOM      1  C   UNL     1       8.768   5.005  -1.027  0.00  0.00    +0.020 A 
ATOM      2  C   UNL     1       9.921   4.187  -1.327  0.00  0.00    +0.013 A 
ATOM      3  C   UNL     1      10.965   3.980  -0.332  0.00  0.00    +0.019 A 
ATOM     38  C   UNL     1      10.812   4.618   0.967  0.00  0.00    +0.120 A 
ATOM     39  N   UNL     1       9.691   5.402   1.226  0.00  0.00    -0.263 NA
ATOM     40  C   UNL     1       8.680   5.610   0.276  0.00  0.00    +0.111 A 
ENDBRANCH   4   3
ENDBRANCH  10   9
BRANCH  12  13
ATOM     13  N   UNL     1      19.353   0.740   1.459  0.00  0.00    -0.281 N 
ATOM     14  C   UNL     1      20.217   0.864   2.535  0.00  0.00    +0.248 C 
ATOM     30  O   UNL     1      19.891   0.717   3.704  0.00  0.00    -0.270 OA
ATOM     31  H   UNL     1      19.703   1.078   0.562  0.00  0.00    +0.155 HD
BRANCH  14  15
ATOM     15  C   UNL     1      21.647   1.216   2.277  0.00  0.00    +0.037 A 
ATOM     16  C   UNL     1      22.363   0.681   1.116  0.00  0.00    +0.013 A 
ATOM     17  C   UNL     1      23.746   1.023   0.899  0.00  0.00    +0.005 A 
ATOM     18  C   UNL     1      24.423   1.906   1.846  0.00  0.00    -0.033 A 
ATOM     28  C   UNL     1      23.687   2.426   2.987  0.00  0.00    +0.005 A 
ATOM     29  C   UNL     1      22.331   2.093   3.203  0.00  0.00    +0.013 A 
BRANCH  18  19
ATOM     19  C   UNL     1      25.903   2.307   1.705  0.00  0.00    +0.119 C 
BRANCH  19  20
ATOM     20  N   UNL     1      26.338   3.565   2.381  0.00  0.00    -0.302 NA
ATOM     21  C   UNL     1      26.394   4.749   1.411  0.00  0.00    +0.066 C 
ATOM     22  C   UNL     1      26.829   6.062   2.140  0.00  0.00    -0.064 C 
ATOM     23  N   UNL     1      28.188   5.845   2.809  0.00  0.00    +0.379 N 
ATOM     24  C   UNL     1      28.627   7.095   3.446  0.00  0.00    -0.096 C 
ATOM     25  H   UNL     1      28.923   5.597   2.008  0.00  0.00    -0.082 HD
ATOM     26  C   UNL     1      28.141   4.668   3.773  0.00  0.00    -0.064 C 
ATOM     27  C   UNL     1      27.680   3.375   3.045  0.00  0.00    +0.066 C 
ENDBRANCH  19  20
ENDBRANCH  18  19
ENDBRANCH  14  15
ENDBRANCH  12  13
TORSDOF 6
ENDMDL
