MODEL 1
REMARK VINA RESULT:      -2.4      0.000      0.000
REMARK  Name = C:\Users\Docking\Desktop\test protocol\1iep_ligandH.pdb
REMARK  8 active torsions:
REMARK  status: ('A' for Active; 'I' for Inactive)
REMARK    1  A    between atoms: _5  and  _11
REMARK    2  A    between atoms: _19  and  _21
REMARK    3  A    between atoms: _22  and  _66
REMARK    4  A    between atoms: _27  and  _30
REMARK    5  A    between atoms: _32  and  _33
REMARK    6  A    between atoms: _38  and  _43
REMARK    7  A    between atoms: _43  and  _46
REMARK    8  A    between atoms: _53  and  _55
REMARK                            x       y       z     vdW  Elec       q    Type
REMARK                         _______ _______ _______ _____ _____    ______ ____
ROOT
ATOM     10  C   UNL     1     -13.120 -26.595   8.202  0.00  0.00    +0.038 A 
ATOM     11  C   UNL     1     -12.864 -27.623   7.259  0.00  0.00    +0.047 A 
ATOM     12  C   UNL     1     -13.394 -27.551   5.906  0.00  0.00    +0.035 A 
ATOM     32  C   UNL     1     -14.178 -26.417   5.547  0.00  0.00    +0.024 A 
ATOM     33  C   UNL     1     -14.449 -25.363   6.493  0.00  0.00    +0.007 A 
ATOM     34  C   UNL     1     -13.931 -25.430   7.830  0.00  0.00    -0.029 A 
ATOM     35  C   UNL     1     -14.258 -24.275   8.805  0.00  0.00    +0.045 C 
ENDROOT
BRANCH  10   9
ATOM      4  C   UNL     1      -9.535 -26.122  11.359  0.00  0.00    +0.077 A 
ATOM      5  C   UNL     1      -8.641 -25.618  10.357  0.00  0.00    +0.048 A 
ATOM      6  C   UNL     1      -9.140 -25.502   9.040  0.00  0.00    +0.116 A 
ATOM      7  N   UNL     1     -10.439 -25.866   8.758  0.00  0.00    -0.223 NA
ATOM      8  C   UNL     1     -11.275 -26.351   9.747  0.00  0.00    +0.220 A 
ATOM      9  N   UNL     1     -12.587 -26.716   9.488  0.00  0.00    -0.283 N 
ATOM     36  H   UNL     1     -13.169 -27.076  10.243  0.00  0.00    +0.155 HD
ATOM     37  N   UNL     1     -10.821 -26.472  11.012  0.00  0.00    -0.214 NA
BRANCH   4   3
ATOM      1  C   UNL     1      -8.856 -27.698  14.874  0.00  0.00    +0.020 A 
ATOM      2  C   UNL     1      -9.235 -27.581  13.485  0.00  0.00    +0.013 A 
ATOM      3  C   UNL     1      -9.156 -26.299  12.797  0.00  0.00    +0.019 A 
ATOM     38  C   UNL     1      -8.686 -25.145  13.549  0.00  0.00    +0.120 A 
ATOM     39  N   UNL     1      -8.329 -25.288  14.886  0.00  0.00    -0.263 NA
ATOM     40  C   UNL     1      -8.403 -26.517  15.559  0.00  0.00    +0.111 A 
ENDBRANCH   4   3
ENDBRANCH  10   9
BRANCH  12  13
ATOM     13  N   UNL     1     -13.174 -28.568   4.908  0.00  0.00    -0.281 N 
ATOM     14  C   UNL     1     -12.304 -28.530   3.830  0.00  0.00    +0.248 C 
ATOM     30  O   UNL     1     -11.733 -27.523   3.438  0.00  0.00    -0.270 OA
ATOM     31  H   UNL     1     -13.727 -29.419   5.007  0.00  0.00    +0.155 HD
BRANCH  14  15
ATOM     15  C   UNL     1     -12.039 -29.790   3.071  0.00  0.00    +0.037 A 
ATOM     16  C   UNL     1     -10.738 -30.042   2.447  0.00  0.00    +0.013 A 
ATOM     17  C   UNL     1     -10.515 -31.258   1.705  0.00  0.00    +0.005 A 
ATOM     18  C   UNL     1     -11.598 -32.232   1.585  0.00  0.00    -0.033 A 
ATOM     28  C   UNL     1     -12.877 -31.958   2.218  0.00  0.00    +0.005 A 
ATOM     29  C   UNL     1     -13.099 -30.767   2.945  0.00  0.00    +0.013 A 
BRANCH  18  19
ATOM     19  C   UNL     1     -11.456 -33.546   0.795  0.00  0.00    +0.119 C 
BRANCH  19  20
ATOM     20  N   UNL     1     -10.381 -34.490   1.224  0.00  0.00    -0.302 NA
ATOM     21  C   UNL     1     -10.351 -35.757   0.365  0.00  0.00    +0.066 C 
ATOM     22  C   UNL     1      -9.207 -36.723   0.813  0.00  0.00    -0.064 C 
ATOM     23  N   UNL     1      -9.389 -37.074   2.291  0.00  0.00    +0.379 N 
ATOM     24  C   UNL     1      -8.348 -38.028   2.701  0.00  0.00    -0.096 C 
ATOM     25  H   UNL     1     -10.375 -37.583   2.397  0.00  0.00    -0.082 HD
ATOM     26  C   UNL     1      -9.423 -35.820   3.152  0.00  0.00    -0.064 C 
ATOM     27  C   UNL     1     -10.545 -34.854   2.679  0.00  0.00    +0.066 C 
ENDBRANCH  19  20
ENDBRANCH  18  19
ENDBRANCH  14  15
ENDBRANCH  12  13
TORSDOF 6
ENDMDL
MODEL 2
REMARK VINA RESULT:      -2.3      3.273      5.985
REMARK  Name = C:\Users\Docking\Desktop\test protocol\1iep_ligandH.pdb
REMARK  8 active torsions:
REMARK  status: ('A' for Active; 'I' for Inactive)
REMARK    1  A    between atoms: _5  and  _11
REMARK    2  A    between atoms: _19  and  _21
REMARK    3  A    between atoms: _22  and  _66
REMARK    4  A    between atoms: _27  and  _30
REMARK    5  A    between atoms: _32  and  _33
REMARK    6  A    between atoms: _38  and  _43
REMARK    7  A    between atoms: _43  and  _46
REMARK    8  A    between atoms: _53  and  _55
REMARK                            x       y       z     vdW  Elec       q    Type
REMARK                         _______ _______ _______ _____ _____    ______ ____
ROOT
ATOM     10  C   UNL     1      -8.142 -26.056  11.699  0.00  0.00    +0.038 A 
ATOM     11  C   UNL     1      -8.860 -26.460  10.545  0.00  0.00    +0.047 A 
ATOM     12  C   UNL     1      -9.010 -25.571   9.403  0.00  0.00    +0.035 A 
ATOM     32  C   UNL     1      -8.412 -24.279   9.470  0.00  0.00    +0.024 A 
ATOM     33  C   UNL     1      -7.679 -23.852  10.636  0.00  0.00    +0.007 A 
ATOM     34  C   UNL     1      -7.530 -24.723  11.766  0.00  0.00    -0.029 A 
ATOM     35  C   UNL     1      -6.740 -24.211  12.992  0.00  0.00    +0.045 C 
ENDROOT
BRANCH  10   9
ATOM      4  C   UNL     1      -9.774 -28.024  15.762  0.00  0.00    +0.077 A 
ATOM      5  C   UNL     1     -10.935 -27.182  15.773  0.00  0.00    +0.048 A 
ATOM      6  C   UNL     1     -11.071 -26.251  14.719  0.00  0.00    +0.116 A 
ATOM      7  N   UNL     1     -10.112 -26.176  13.732  0.00  0.00    -0.223 NA
ATOM      8  C   UNL     1      -9.003 -27.002  13.753  0.00  0.00    +0.220 A 
ATOM      9  N   UNL     1      -8.030 -26.950  12.767  0.00  0.00    -0.283 N 
ATOM     36  H   UNL     1      -7.223 -27.571  12.822  0.00  0.00    +0.155 HD
ATOM     37  N   UNL     1      -8.849 -27.898  14.749  0.00  0.00    -0.214 NA
BRANCH   4   3
ATOM      1  C   UNL     1     -10.031 -30.289  18.941  0.00  0.00    +0.020 A 
ATOM      2  C   UNL     1     -10.350 -29.275  17.962  0.00  0.00    +0.013 A 
ATOM      3  C   UNL     1      -9.490 -29.059  16.805  0.00  0.00    +0.019 A 
ATOM     38  C   UNL     1      -8.306 -29.894  16.666  0.00  0.00    +0.120 A 
ATOM     39  N   UNL     1      -8.023 -30.862  17.625  0.00  0.00    -0.263 NA
ATOM     40  C   UNL     1      -8.843 -31.077  18.744  0.00  0.00    +0.111 A 
ENDBRANCH   4   3
ENDBRANCH  10   9
BRANCH  12  13
ATOM     13  N   UNL     1      -9.735 -25.923   8.207  0.00  0.00    -0.281 N 
ATOM     14  C   UNL     1      -9.525 -27.008   7.372  0.00  0.00    +0.248 C 
ATOM     30  O   UNL     1      -8.538 -27.728   7.409  0.00  0.00    -0.270 OA
ATOM     31  H   UNL     1     -10.495 -25.296   7.945  0.00  0.00    +0.155 HD
BRANCH  14  15
ATOM     15  C   UNL     1     -10.552 -27.331   6.336  0.00  0.00    +0.037 A 
ATOM     16  C   UNL     1     -11.981 -27.342   6.660  0.00  0.00    +0.013 A 
ATOM     17  C   UNL     1     -12.950 -27.674   5.646  0.00  0.00    +0.005 A 
ATOM     18  C   UNL     1     -12.493 -27.997   4.297  0.00  0.00    -0.033 A 
ATOM     28  C   UNL     1     -11.070 -27.973   4.001  0.00  0.00    +0.005 A 
ATOM     29  C   UNL     1     -10.117 -27.649   4.992  0.00  0.00    +0.013 A 
BRANCH  18  19
ATOM     19  C   UNL     1     -13.455 -28.383   3.158  0.00  0.00    +0.119 C 
BRANCH  19  20
ATOM     20  N   UNL     1     -13.969 -29.785   3.142  0.00  0.00    -0.302 NA
ATOM     21  C   UNL     1     -14.795 -30.109   4.390  0.00  0.00    +0.066 C 
ATOM     22  C   UNL     1     -15.342 -31.572   4.347  0.00  0.00    -0.064 C 
ATOM     23  N   UNL     1     -14.173 -32.548   4.204  0.00  0.00    +0.379 N 
ATOM     24  C   UNL     1     -14.680 -33.927   4.221  0.00  0.00    -0.096 C 
ATOM     25  H   UNL     1     -13.514 -32.418   5.094  0.00  0.00    -0.082 HD
ATOM     26  C   UNL     1     -13.344 -32.232   2.967  0.00  0.00    -0.064 C 
ATOM     27  C   UNL     1     -12.830 -30.766   3.006  0.00  0.00    +0.066 C 
ENDBRANCH  19  20
ENDBRANCH  18  19
ENDBRANCH  14  15
ENDBRANCH  12  13
TORSDOF 6
ENDMDL
MODEL 3
REMARK VINA RESULT:      -2.2      5.204      6.724
REMARK  Name = C:\Users\Docking\Desktop\test protocol\1iep_ligandH.pdb
REMARK  8 active torsions:
REMARK  status: ('A' for Active; 'I' for Inactive)
REMARK    1  A    between atoms: _5  and  _11
REMARK    2  A    between atoms: _19  and  _21
REMARK    3  A    between atoms: _22  and  _66
REMARK    4  A    between atoms: _27  and  _30
REMARK    5  A    between atoms: _32  and  _33
REMARK    6  A    between atoms: _38  and  _43
REMARK    7  A    between atoms: _43  and  _46
REMARK    8  A    between atoms: _53  and  _55
REMARK                            x       y       z     vdW  Elec       q    Type
REMARK                         _______ _______ _______ _____ _____    ______ ____
ROOT
ATOM     10  C   UNL     1      -8.094 -27.959  11.276  0.00  0.00    +0.038 A 
ATOM     11  C   UNL     1      -8.306 -29.171  10.572  0.00  0.00    +0.047 A 
ATOM     12  C   UNL     1      -9.637 -29.745  10.445  0.00  0.00    +0.035 A 
ATOM     32  C   UNL     1     -10.730 -29.055  11.046  0.00  0.00    +0.024 A 
ATOM     33  C   UNL     1     -10.532 -27.822  11.767  0.00  0.00    +0.007 A 
ATOM     34  C   UNL     1      -9.221 -27.253  11.897  0.00  0.00    -0.029 A 
ATOM     35  C   UNL     1      -9.066 -25.932  12.687  0.00  0.00    +0.045 C 
ENDROOT
BRANCH  10   9
ATOM      4  C   UNL     1      -4.434 -25.363   9.572  0.00  0.00    +0.077 A 
ATOM      5  C   UNL     1      -5.162 -25.005   8.389  0.00  0.00    +0.048 A 
ATOM      6  C   UNL     1      -6.472 -25.515   8.254  0.00  0.00    +0.116 A 
ATOM      7  N   UNL     1      -7.005 -26.323   9.235  0.00  0.00    -0.223 NA
ATOM      8  C   UNL     1      -6.276 -26.650  10.363  0.00  0.00    +0.220 A 
ATOM      9  N   UNL     1      -6.795 -27.453  11.367  0.00  0.00    -0.283 N 
ATOM     36  H   UNL     1      -6.222 -27.678  12.180  0.00  0.00    +0.155 HD
ATOM     37  N   UNL     1      -5.022 -26.176  10.515  0.00  0.00    -0.214 NA
BRANCH   4   3
ATOM      1  C   UNL     1      -1.005 -24.720  11.341  0.00  0.00    +0.020 A 
ATOM      2  C   UNL     1      -2.351 -25.191  11.112  0.00  0.00    +0.013 A 
ATOM      3  C   UNL     1      -3.040 -24.899   9.861  0.00  0.00    +0.019 A 
ATOM     38  C   UNL     1      -2.332 -24.123   8.854  0.00  0.00    +0.120 A 
ATOM     39  N   UNL     1      -1.036 -23.682   9.103  0.00  0.00    -0.263 NA
ATOM     40  C   UNL     1      -0.364 -23.955  10.303  0.00  0.00    +0.111 A 
ENDBRANCH   4   3
ENDBRANCH  10   9
BRANCH  12  13
ATOM     13  N   UNL     1      -9.913 -30.977   9.749  0.00  0.00    -0.281 N 
ATOM     14  C   UNL     1      -9.918 -32.263  10.263  0.00  0.00    +0.248 C 
ATOM     30  O   UNL     1      -9.474 -32.571  11.359  0.00  0.00    -0.270 OA
ATOM     31  H   UNL     1     -10.130 -30.890   8.756  0.00  0.00    +0.155 HD
BRANCH  14  15
ATOM     15  C   UNL     1     -10.484 -33.370   9.434  0.00  0.00    +0.037 A 
ATOM     16  C   UNL     1      -9.629 -34.429   8.893  0.00  0.00    +0.013 A 
ATOM     17  C   UNL     1     -10.198 -35.476   8.082  0.00  0.00    +0.005 A 
ATOM     18  C   UNL     1     -11.633 -35.469   7.808  0.00  0.00    -0.033 A 
ATOM     28  C   UNL     1     -12.460 -34.409   8.361  0.00  0.00    +0.005 A 
ATOM     29  C   UNL     1     -11.905 -33.381   9.156  0.00  0.00    +0.013 A 
BRANCH  18  19
ATOM     19  C   UNL     1     -12.323 -36.534   6.935  0.00  0.00    +0.119 C 
BRANCH  19  20
ATOM     20  N   UNL     1     -13.150 -36.049   5.790  0.00  0.00    -0.302 NA
ATOM     21  C   UNL     1     -14.228 -37.061   5.391  0.00  0.00    +0.066 C 
ATOM     22  C   UNL     1     -15.098 -36.527   4.207  0.00  0.00    -0.064 C 
ATOM     23  N   UNL     1     -14.192 -36.204   3.017  0.00  0.00    +0.379 N 
ATOM     24  C   UNL     1     -15.013 -35.757   1.883  0.00  0.00    -0.096 C 
ATOM     25  H   UNL     1     -13.682 -37.148   2.715  0.00  0.00    -0.082 HD
ATOM     26  C   UNL     1     -13.116 -35.201   3.406  0.00  0.00    -0.064 C 
ATOM     27  C   UNL     1     -12.276 -35.728   4.603  0.00  0.00    +0.066 C 
ENDBRANCH  19  20
ENDBRANCH  18  19
ENDBRANCH  14  15
ENDBRANCH  12  13
TORSDOF 6
ENDMDL
MODEL 4
REMARK VINA RESULT:      -2.1      7.449     12.310
REMARK  Name = C:\Users\Docking\Desktop\test protocol\1iep_ligandH.pdb
REMARK  8 active torsions:
REMARK  status: ('A' for Active; 'I' for Inactive)
REMARK    1  A    between atoms: _5  and  _11
REMARK    2  A    between atoms: _19  and  _21
REMARK    3  A    between atoms: _22  and  _66
REMARK    4  A    between atoms: _27  and  _30
REMARK    5  A    between atoms: _32  and  _33
REMARK    6  A    between atoms: _38  and  _43
REMARK    7  A    between atoms: _43  and  _46
REMARK    8  A    between atoms: _53  and  _55
REMARK                            x       y       z     vdW  Elec       q    Type
REMARK                         _______ _______ _______ _____ _____    ______ ____
ROOT
ATOM     10  C   UNL     1      -1.529 -29.889  16.830  0.00  0.00    +0.038 A 
ATOM     11  C   UNL     1      -2.535 -30.158  15.867  0.00  0.00    +0.047 A 
ATOM     12  C   UNL     1      -2.997 -31.515  15.621  0.00  0.00    +0.035 A 
ATOM     32  C   UNL     1      -2.416 -32.574  16.377  0.00  0.00    +0.024 A 
ATOM     33  C   UNL     1      -1.392 -32.319  17.359  0.00  0.00    +0.007 A 
ATOM     34  C   UNL     1      -0.929 -30.983  17.604  0.00  0.00    -0.029 A 
ATOM     35  C   UNL     1       0.176 -30.769  18.665  0.00  0.00    +0.045 C 
ENDROOT
BRANCH  10   9
ATOM      4  C   UNL     1      -1.927 -25.610  18.968  0.00  0.00    +0.077 A 
ATOM      5  C   UNL     1      -3.058 -26.036  19.742  0.00  0.00    +0.048 A 
ATOM      6  C   UNL     1      -3.510 -27.361  19.554  0.00  0.00    +0.116 A 
ATOM      7  N   UNL     1      -2.872 -28.191  18.658  0.00  0.00    -0.223 NA
ATOM      8  C   UNL     1      -1.785 -27.748  17.927  0.00  0.00    +0.220 A 
ATOM      9  N   UNL     1      -1.122 -28.567  17.026  0.00  0.00    -0.283 N 
ATOM     36  H   UNL     1      -0.329 -28.201  16.500  0.00  0.00    +0.155 HD
ATOM     37  N   UNL     1      -1.334 -26.486  18.086  0.00  0.00    -0.214 NA
BRANCH   4   3
ATOM      1  C   UNL     1      -1.256 -21.887  19.963  0.00  0.00    +0.020 A 
ATOM      2  C   UNL     1      -1.871 -23.194  19.915  0.00  0.00    +0.013 A 
ATOM      3  C   UNL     1      -1.330 -24.240  19.056  0.00  0.00    +0.019 A 
ATOM     38  C   UNL     1      -0.156 -23.930  18.254  0.00  0.00    +0.120 A 
ATOM     39  N   UNL     1       0.414 -22.662  18.321  0.00  0.00    -0.263 NA
ATOM     40  C   UNL     1      -0.099 -21.647  19.142  0.00  0.00    +0.111 A 
ENDBRANCH   4   3
ENDBRANCH  10   9
BRANCH  12  13
ATOM     13  N   UNL     1      -4.010 -31.850  14.650  0.00  0.00    -0.281 N 
ATOM     14  C   UNL     1      -5.352 -31.509  14.668  0.00  0.00    +0.248 C 
ATOM     30  O   UNL     1      -5.934 -31.042  15.635  0.00  0.00    -0.270 OA
ATOM     31  H   UNL     1      -3.698 -32.406  13.854  0.00  0.00    +0.155 HD
BRANCH  14  15
ATOM     15  C   UNL     1      -6.170 -31.732  13.437  0.00  0.00    +0.037 A 
ATOM     16  C   UNL     1      -5.573 -31.646  12.102  0.00  0.00    +0.013 A 
ATOM     17  C   UNL     1      -6.388 -31.849  10.930  0.00  0.00    +0.005 A 
ATOM     18  C   UNL     1      -7.810 -32.142  11.089  0.00  0.00    -0.033 A 
ATOM     28  C   UNL     1      -8.375 -32.228  12.426  0.00  0.00    +0.005 A 
ATOM     29  C   UNL     1      -7.580 -32.028  13.576  0.00  0.00    +0.013 A 
BRANCH  18  19
ATOM     19  C   UNL     1      -8.759 -32.352   9.895  0.00  0.00    +0.119 C 
BRANCH  19  20
ATOM     20  N   UNL     1     -10.224 -32.215  10.153  0.00  0.00    -0.302 NA
ATOM     21  C   UNL     1     -11.048 -33.211   9.332  0.00  0.00    +0.066 C 
ATOM     22  C   UNL     1     -12.575 -33.069   9.631  0.00  0.00    -0.064 C 
ATOM     23  N   UNL     1     -13.017 -31.633   9.343  0.00  0.00    +0.379 N 
ATOM     24  C   UNL     1     -14.465 -31.511   9.568  0.00  0.00    -0.096 C 
ATOM     25  H   UNL     1     -12.824 -31.430   8.264  0.00  0.00    -0.082 HD
ATOM     26  C   UNL     1     -12.201 -30.636  10.154  0.00  0.00    -0.064 C 
ATOM     27  C   UNL     1     -10.683 -30.806   9.871  0.00  0.00    +0.066 C 
ENDBRANCH  19  20
ENDBRANCH  18  19
ENDBRANCH  14  15
ENDBRANCH  12  13
TORSDOF 6
ENDMDL
MODEL 5
REMARK VINA RESULT:      -2.0      5.529     14.056
REMARK  Name = C:\Users\Docking\Desktop\test protocol\1iep_ligandH.pdb
REMARK  8 active torsions:
REMARK  status: ('A' for Active; 'I' for Inactive)
REMARK    1  A    between atoms: _5  and  _11
REMARK    2  A    between atoms: _19  and  _21
REMARK    3  A    between atoms: _22  and  _66
REMARK    4  A    between atoms: _27  and  _30
REMARK    5  A    between atoms: _32  and  _33
REMARK    6  A    between atoms: _38  and  _43
REMARK    7  A    between atoms: _43  and  _46
REMARK    8  A    between atoms: _53  and  _55
REMARK                            x       y       z     vdW  Elec       q    Type
REMARK                         _______ _______ _______ _____ _____    ______ ____
ROOT
ATOM     10  C   UNL     1      -8.336 -30.446  10.674  0.00  0.00    +0.038 A 
ATOM     11  C   UNL     1      -7.779 -29.816  11.816  0.00  0.00    +0.047 A 
ATOM     12  C   UNL     1      -7.574 -30.550  13.055  0.00  0.00    +0.035 A 
ATOM     32  C   UNL     1      -7.946 -31.925  13.096  0.00  0.00    +0.024 A 
ATOM     33  C   UNL     1      -8.515 -32.581  11.944  0.00  0.00    +0.007 A 
ATOM     34  C   UNL     1      -8.722 -31.862  10.720  0.00  0.00    -0.029 A 
ATOM     35  C   UNL     1      -9.342 -32.614   9.520  0.00  0.00    +0.045 C 
ENDROOT
BRANCH  10   9
ATOM      4  C   UNL     1     -11.030 -27.810   7.702  0.00  0.00    +0.077 A 
ATOM      5  C   UNL     1     -12.195 -27.967   8.524  0.00  0.00    +0.048 A 
ATOM      6  C   UNL     1     -12.061 -28.739   9.700  0.00  0.00    +0.116 A 
ATOM      7  N   UNL     1     -10.847 -29.307  10.020  0.00  0.00    -0.223 NA
ATOM      8  C   UNL     1      -9.743 -29.138   9.204  0.00  0.00    +0.220 A 
ATOM      9  N   UNL     1      -8.511 -29.694   9.510  0.00  0.00    -0.283 N 
ATOM     36  H   UNL     1      -7.723 -29.552   8.879  0.00  0.00    +0.155 HD
ATOM     37  N   UNL     1      -9.846 -28.406   8.075  0.00  0.00    -0.214 NA
BRANCH   4   3
ATOM      1  C   UNL     1     -11.592 -24.989   5.051  0.00  0.00    +0.020 A 
ATOM      2  C   UNL     1     -11.639 -25.711   6.302  0.00  0.00    +0.013 A 
ATOM      3  C   UNL     1     -11.012 -27.020   6.430  0.00  0.00    +0.019 A 
ATOM     38  C   UNL     1     -10.340 -27.575   5.265  0.00  0.00    +0.120 A 
ATOM     39  N   UNL     1     -10.312 -26.858   4.073  0.00  0.00    -0.263 NA
ATOM     40  C   UNL     1     -10.914 -25.598   3.938  0.00  0.00    +0.111 A 
ENDBRANCH   4   3
ENDBRANCH  10   9
BRANCH  12  13
ATOM     13  N   UNL     1      -7.020 -29.962  14.249  0.00  0.00    -0.281 N 
ATOM     14  C   UNL     1      -7.675 -29.652  15.430  0.00  0.00    +0.248 C 
ATOM     30  O   UNL     1      -8.890 -29.639  15.562  0.00  0.00    -0.270 OA
ATOM     31  H   UNL     1      -6.023 -29.747  14.221  0.00  0.00    +0.155 HD
BRANCH  14  15
ATOM     15  C   UNL     1      -6.865 -29.293  16.633  0.00  0.00    +0.037 A 
ATOM     16  C   UNL     1      -7.461 -28.576  17.764  0.00  0.00    +0.013 A 
ATOM     17  C   UNL     1      -6.652 -28.226  18.905  0.00  0.00    +0.005 A 
ATOM     18  C   UNL     1      -5.238 -28.594  18.921  0.00  0.00    -0.033 A 
ATOM     28  C   UNL     1      -4.674 -29.309  17.788  0.00  0.00    +0.005 A 
ATOM     29  C   UNL     1      -5.463 -29.653  16.667  0.00  0.00    +0.013 A 
BRANCH  18  19
ATOM     19  C   UNL     1      -4.296 -28.243  20.087  0.00  0.00    +0.119 C 
BRANCH  19  20
ATOM     20  N   UNL     1      -2.951 -27.696  19.738  0.00  0.00    -0.302 NA
ATOM     21  C   UNL     1      -1.904 -28.018  20.809  0.00  0.00    +0.066 C 
ATOM     22  C   UNL     1      -0.498 -27.458  20.417  0.00  0.00    -0.064 C 
ATOM     23  N   UNL     1      -0.598 -25.948  20.194  0.00  0.00    +0.379 N 
ATOM     24  C   UNL     1       0.734 -25.410  19.882  0.00  0.00    -0.096 C 
ATOM     25  H   UNL     1      -0.934 -25.486  21.151  0.00  0.00    -0.082 HD
ATOM     26  C   UNL     1      -1.638 -25.619  19.133  0.00  0.00    -0.064 C 
ATOM     27  C   UNL     1      -3.025 -26.205  19.518  0.00  0.00    +0.066 C 
ENDBRANCH  19  20
ENDBRANCH  18  19
ENDBRANCH  14  15
ENDBRANCH  12  13
TORSDOF 6
ENDMDL
