MODEL 1
REMARK VINA RESULT:      -1.6      0.000      0.000
REMARK  Name = C:\Users\Docking\Desktop\test protocol\1iep_ligandH.pdb
REMARK  8 active torsions:
REMARK  status: ('A' for Active; 'I' for Inactive)
REMARK    1  A    between atoms: _5  and  _11
REMARK    2  A    between atoms: _19  and  _21
REMARK    3  A    between atoms: _22  and  _66
REMARK    4  A    between atoms: _27  and  _30
REMARK    5  A    between atoms: _32  and  _33
REMARK    6  A    between atoms: _38  and  _43
REMARK    7  A    between atoms: _43  and  _46
REMARK    8  A    between atoms: _53  and  _55
REMARK                            x       y       z     vdW  Elec       q    Type
REMARK                         _______ _______ _______ _____ _____    ______ ____
ROOT
ATOM     10  C   UNL     1     -38.646  15.150  10.222  0.00  0.00    +0.038 A 
ATOM     11  C   UNL     1     -37.477  14.753   9.524  0.00  0.00    +0.047 A 
ATOM     12  C   UNL     1     -36.254  14.417  10.236  0.00  0.00    +0.035 A 
ATOM     32  C   UNL     1     -36.258  14.492  11.659  0.00  0.00    +0.024 A 
ATOM     33  C   UNL     1     -37.437  14.894  12.385  0.00  0.00    +0.007 A 
ATOM     34  C   UNL     1     -38.646  15.229  11.688  0.00  0.00    -0.029 A 
ATOM     35  C   UNL     1     -39.878  15.660  12.517  0.00  0.00    +0.045 C 
ENDROOT
BRANCH  10   9
ATOM      4  C   UNL     1     -42.747  13.920   8.052  0.00  0.00    +0.077 A 
ATOM      5  C   UNL     1     -42.577  12.535   8.384  0.00  0.00    +0.048 A 
ATOM      6  C   UNL     1     -41.417  12.180   9.108  0.00  0.00    +0.116 A 
ATOM      7  N   UNL     1     -40.502  13.145   9.468  0.00  0.00    -0.223 NA
ATOM      8  C   UNL     1     -40.696  14.472   9.130  0.00  0.00    +0.220 A 
ATOM      9  N   UNL     1     -39.793  15.461   9.489  0.00  0.00    -0.283 N 
ATOM     36  H   UNL     1     -39.969  16.428   9.214  0.00  0.00    +0.155 HD
ATOM     37  N   UNL     1     -41.795  14.837   8.438  0.00  0.00    -0.214 NA
BRANCH   4   3
ATOM      1  C   UNL     1     -46.289  14.291   6.433  0.00  0.00    +0.020 A 
ATOM      2  C   UNL     1     -45.184  13.732   7.178  0.00  0.00    +0.013 A 
ATOM      3  C   UNL     1     -43.922  14.453   7.292  0.00  0.00    +0.019 A 
ATOM     38  C   UNL     1     -43.811  15.748   6.638  0.00  0.00    +0.120 A 
ATOM     39  N   UNL     1     -44.891  16.260   5.926  0.00  0.00    -0.263 NA
ATOM     40  C   UNL     1     -46.109  15.575   5.807  0.00  0.00    +0.111 A 
ENDBRANCH   4   3
ENDBRANCH  10   9
BRANCH  12  13
ATOM     13  N   UNL     1     -35.034  14.016   9.581  0.00  0.00    -0.281 N 
ATOM     14  C   UNL     1     -34.616  12.732   9.271  0.00  0.00    +0.248 C 
ATOM     30  O   UNL     1     -35.133  11.713   9.704  0.00  0.00    -0.270 OA
ATOM     31  H   UNL     1     -34.401  14.770   9.313  0.00  0.00    +0.155 HD
BRANCH  14  15
ATOM     15  C   UNL     1     -33.444  12.554   8.359  0.00  0.00    +0.037 A 
ATOM     16  C   UNL     1     -33.600  11.962   7.028  0.00  0.00    +0.013 A 
ATOM     17  C   UNL     1     -32.452  11.786   6.176  0.00  0.00    +0.005 A 
ATOM     18  C   UNL     1     -31.136  12.205   6.652  0.00  0.00    -0.033 A 
ATOM     28  C   UNL     1     -31.010  12.795   7.974  0.00  0.00    +0.005 A 
ATOM     29  C   UNL     1     -32.134  12.968   8.813  0.00  0.00    +0.013 A 
BRANCH  18  19
ATOM     19  C   UNL     1     -29.852  12.036   5.818  0.00  0.00    +0.119 C 
BRANCH  19  20
ATOM     20  N   UNL     1     -29.806  12.715   4.488  0.00  0.00    -0.302 NA
ATOM     21  C   UNL     1     -28.542  12.353   3.703  0.00  0.00    +0.066 C 
ATOM     22  C   UNL     1     -28.521  13.054   2.305  0.00  0.00    -0.064 C 
ATOM     23  N   UNL     1     -28.626  14.568   2.495  0.00  0.00    +0.379 N 
ATOM     24  C   UNL     1     -28.548  15.233   1.186  0.00  0.00    -0.096 C 
ATOM     25  H   UNL     1     -27.744  14.895   3.094  0.00  0.00    -0.082 HD
ATOM     26  C   UNL     1     -29.878  14.936   3.278  0.00  0.00    -0.064 C 
ATOM     27  C   UNL     1     -29.903  14.211   4.653  0.00  0.00    +0.066 C 
ENDBRANCH  19  20
ENDBRANCH  18  19
ENDBRANCH  14  15
ENDBRANCH  12  13
TORSDOF 6
ENDMDL
MODEL 2
REMARK VINA RESULT:      -1.5      2.827      3.595
REMARK  Name = C:\Users\Docking\Desktop\test protocol\1iep_ligandH.pdb
REMARK  8 active torsions:
REMARK  status: ('A' for Active; 'I' for Inactive)
REMARK    1  A    between atoms: _5  and  _11
REMARK    2  A    between atoms: _19  and  _21
REMARK    3  A    between atoms: _22  and  _66
REMARK    4  A    between atoms: _27  and  _30
REMARK    5  A    between atoms: _32  and  _33
REMARK    6  A    between atoms: _38  and  _43
REMARK    7  A    between atoms: _43  and  _46
REMARK    8  A    between atoms: _53  and  _55
REMARK                            x       y       z     vdW  Elec       q    Type
REMARK                         _______ _______ _______ _____ _____    ______ ____
ROOT
ATOM     10  C   UNL     1     -38.243  15.391  10.585  0.00  0.00    +0.038 A 
ATOM     11  C   UNL     1     -37.146  14.988   9.782  0.00  0.00    +0.047 A 
ATOM     12  C   UNL     1     -35.988  14.329  10.365  0.00  0.00    +0.035 A 
ATOM     32  C   UNL     1     -35.981  14.093  11.771  0.00  0.00    +0.024 A 
ATOM     33  C   UNL     1     -37.088  14.497  12.603  0.00  0.00    +0.007 A 
ATOM     34  C   UNL     1     -38.231  15.150  12.033  0.00  0.00    -0.029 A 
ATOM     35  C   UNL     1     -39.386  15.567  12.974  0.00  0.00    +0.045 C 
ENDROOT
BRANCH  10   9
ATOM      4  C   UNL     1     -40.479  19.292   8.907  0.00  0.00    +0.077 A 
ATOM      5  C   UNL     1     -39.404  20.154   9.308  0.00  0.00    +0.048 A 
ATOM      6  C   UNL     1     -38.297  19.554   9.950  0.00  0.00    +0.116 A 
ATOM      7  N   UNL     1     -38.277  18.194  10.169  0.00  0.00    -0.223 NA
ATOM      8  C   UNL     1     -39.331  17.392   9.770  0.00  0.00    +0.220 A 
ATOM      9  N   UNL     1     -39.329  16.020   9.973  0.00  0.00    -0.283 N 
ATOM     36  H   UNL     1     -40.128  15.465   9.671  0.00  0.00    +0.155 HD
ATOM     37  N   UNL     1     -40.400  17.940   9.157  0.00  0.00    -0.214 NA
BRANCH   4   3
ATOM      1  C   UNL     1     -42.963  21.399   6.740  0.00  0.00    +0.020 A 
ATOM      2  C   UNL     1     -41.742  20.975   7.387  0.00  0.00    +0.013 A 
ATOM      3  C   UNL     1     -41.715  19.776   8.215  0.00  0.00    +0.019 A 
ATOM     38  C   UNL     1     -42.950  19.020   8.367  0.00  0.00    +0.120 A 
ATOM     39  N   UNL     1     -44.110  19.453   7.733  0.00  0.00    -0.263 NA
ATOM     40  C   UNL     1     -44.149  20.607   6.936  0.00  0.00    +0.111 A 
ENDBRANCH   4   3
ENDBRANCH  10   9
BRANCH  12  13
ATOM     13  N   UNL     1     -34.841  13.904   9.601  0.00  0.00    -0.281 N 
ATOM     14  C   UNL     1     -34.570  12.640   9.102  0.00  0.00    +0.248 C 
ATOM     30  O   UNL     1     -35.174  11.627   9.423  0.00  0.00    -0.270 OA
ATOM     31  H   UNL     1     -34.145  14.623   9.403  0.00  0.00    +0.155 HD
BRANCH  14  15
ATOM     15  C   UNL     1     -33.459  12.476   8.116  0.00  0.00    +0.037 A 
ATOM     16  C   UNL     1     -33.696  11.889   6.795  0.00  0.00    +0.013 A 
ATOM     17  C   UNL     1     -32.604  11.726   5.869  0.00  0.00    +0.005 A 
ATOM     18  C   UNL     1     -31.263  12.153   6.262  0.00  0.00    -0.033 A 
ATOM     28  C   UNL     1     -31.056  12.736   7.577  0.00  0.00    +0.005 A 
ATOM     29  C   UNL     1     -32.125  12.897   8.487  0.00  0.00    +0.013 A 
BRANCH  18  19
ATOM     19  C   UNL     1     -30.034  11.998   5.346  0.00  0.00    +0.119 C 
BRANCH  19  20
ATOM     20  N   UNL     1     -29.577  13.210   4.603  0.00  0.00    -0.302 NA
ATOM     21  C   UNL     1     -28.460  13.950   5.344  0.00  0.00    +0.066 C 
ATOM     22  C   UNL     1     -27.979  15.203   4.542  0.00  0.00    -0.064 C 
ATOM     23  N   UNL     1     -29.168  16.131   4.289  0.00  0.00    +0.379 N 
ATOM     24  C   UNL     1     -28.708  17.338   3.586  0.00  0.00    -0.096 C 
ATOM     25  H   UNL     1     -29.566  16.448   5.281  0.00  0.00    -0.082 HD
ATOM     26  C   UNL     1     -30.285  15.402   3.555  0.00  0.00    -0.064 C 
ATOM     27  C   UNL     1     -30.735  14.142   4.346  0.00  0.00    +0.066 C 
ENDBRANCH  19  20
ENDBRANCH  18  19
ENDBRANCH  14  15
ENDBRANCH  12  13
TORSDOF 6
ENDMDL
MODEL 3
REMARK VINA RESULT:      -1.5      3.389     12.447
REMARK  Name = C:\Users\Docking\Desktop\test protocol\1iep_ligandH.pdb
REMARK  8 active torsions:
REMARK  status: ('A' for Active; 'I' for Inactive)
REMARK    1  A    between atoms: _5  and  _11
REMARK    2  A    between atoms: _19  and  _21
REMARK    3  A    between atoms: _22  and  _66
REMARK    4  A    between atoms: _27  and  _30
REMARK    5  A    between atoms: _32  and  _33
REMARK    6  A    between atoms: _38  and  _43
REMARK    7  A    between atoms: _43  and  _46
REMARK    8  A    between atoms: _53  and  _55
REMARK                            x       y       z     vdW  Elec       q    Type
REMARK                         _______ _______ _______ _____ _____    ______ ____
ROOT
ATOM     10  C   UNL     1     -32.948  11.793   8.670  0.00  0.00    +0.038 A 
ATOM     11  C   UNL     1     -34.177  12.362   8.248  0.00  0.00    +0.047 A 
ATOM     12  C   UNL     1     -35.170  11.568   7.542  0.00  0.00    +0.035 A 
ATOM     32  C   UNL     1     -34.880  10.196   7.284  0.00  0.00    +0.024 A 
ATOM     33  C   UNL     1     -33.635   9.603   7.705  0.00  0.00    +0.007 A 
ATOM     34  C   UNL     1     -32.650  10.382   8.400  0.00  0.00    -0.029 A 
ATOM     35  C   UNL     1     -31.331   9.694   8.821  0.00  0.00    +0.045 C 
ENDROOT
BRANCH  10   9
ATOM      4  C   UNL     1     -29.230  14.829   8.738  0.00  0.00    +0.077 A 
ATOM      5  C   UNL     1     -29.088  14.779   7.311  0.00  0.00    +0.048 A 
ATOM      6  C   UNL     1     -29.986  13.955   6.597  0.00  0.00    +0.116 A 
ATOM      7  N   UNL     1     -30.952  13.238   7.271  0.00  0.00    -0.223 NA
ATOM      8  C   UNL     1     -31.061  13.308   8.647  0.00  0.00    +0.220 A 
ATOM      9  N   UNL     1     -32.030  12.602   9.344  0.00  0.00    -0.283 N 
ATOM     36  H   UNL     1     -32.073  12.674  10.360  0.00  0.00    +0.155 HD
ATOM     37  N   UNL     1     -30.214  14.087   9.352  0.00  0.00    -0.214 NA
BRANCH   4   3
ATOM      1  C   UNL     1     -27.632  16.491  11.897  0.00  0.00    +0.020 A 
ATOM      2  C   UNL     1     -28.500  15.674  11.081  0.00  0.00    +0.013 A 
ATOM      3  C   UNL     1     -28.359  15.657   9.630  0.00  0.00    +0.019 A 
ATOM     38  C   UNL     1     -27.321  16.483   9.033  0.00  0.00    +0.120 A 
ATOM     39  N   UNL     1     -26.500  17.261   9.844  0.00  0.00    -0.263 NA
ATOM     40  C   UNL     1     -26.628  17.287  11.241  0.00  0.00    +0.111 A 
ENDBRANCH   4   3
ENDBRANCH  10   9
BRANCH  12  13
ATOM     13  N   UNL     1     -36.432  12.093   7.082  0.00  0.00    -0.281 N 
ATOM     14  C   UNL     1     -37.533  12.450   7.843  0.00  0.00    +0.248 C 
ATOM     30  O   UNL     1     -37.678  12.170   9.024  0.00  0.00    -0.270 OA
ATOM     31  H   UNL     1     -36.524  12.216   6.074  0.00  0.00    +0.155 HD
BRANCH  14  15
ATOM     15  C   UNL     1     -38.641  13.216   7.194  0.00  0.00    +0.037 A 
ATOM     16  C   UNL     1     -39.588  14.001   7.989  0.00  0.00    +0.013 A 
ATOM     17  C   UNL     1     -40.658  14.717   7.340  0.00  0.00    +0.005 A 
ATOM     18  C   UNL     1     -40.784  14.652   5.886  0.00  0.00    -0.033 A 
ATOM     28  C   UNL     1     -39.827  13.870   5.121  0.00  0.00    +0.005 A 
ATOM     29  C   UNL     1     -38.778  13.166   5.754  0.00  0.00    +0.013 A 
BRANCH  18  19
ATOM     19  C   UNL     1     -41.906  15.367   5.111  0.00  0.00    +0.119 C 
BRANCH  19  20
ATOM     20  N   UNL     1     -43.274  15.342   5.710  0.00  0.00    -0.302 NA
ATOM     21  C   UNL     1     -43.930  13.964   5.587  0.00  0.00    +0.066 C 
ATOM     22  C   UNL     1     -45.351  13.949   6.239  0.00  0.00    -0.064 C 
ATOM     23  N   UNL     1     -46.221  15.023   5.583  0.00  0.00    +0.379 N 
ATOM     24  C   UNL     1     -47.575  14.973   6.153  0.00  0.00    -0.096 C 
ATOM     25  H   UNL     1     -46.301  14.777   4.498  0.00  0.00    -0.082 HD
ATOM     26  C   UNL     1     -45.575  16.396   5.698  0.00  0.00    -0.064 C 
ATOM     27  C   UNL     1     -44.152  16.392   5.073  0.00  0.00    +0.066 C 
ENDBRANCH  19  20
ENDBRANCH  18  19
ENDBRANCH  14  15
ENDBRANCH  12  13
TORSDOF 6
ENDMDL
MODEL 4
REMARK VINA RESULT:      -1.4      7.141     10.108
REMARK  Name = C:\Users\Docking\Desktop\test protocol\1iep_ligandH.pdb
REMARK  8 active torsions:
REMARK  status: ('A' for Active; 'I' for Inactive)
REMARK    1  A    between atoms: _5  and  _11
REMARK    2  A    between atoms: _19  and  _21
REMARK    3  A    between atoms: _22  and  _66
REMARK    4  A    between atoms: _27  and  _30
REMARK    5  A    between atoms: _32  and  _33
REMARK    6  A    between atoms: _38  and  _43
REMARK    7  A    between atoms: _43  and  _46
REMARK    8  A    between atoms: _53  and  _55
REMARK                            x       y       z     vdW  Elec       q    Type
REMARK                         _______ _______ _______ _____ _____    ______ ____
ROOT
ATOM     10  C   UNL     1     -30.688  12.129   8.759  0.00  0.00    +0.038 A 
ATOM     11  C   UNL     1     -30.827  13.522   8.533  0.00  0.00    +0.047 A 
ATOM     12  C   UNL     1     -30.646  14.481   9.613  0.00  0.00    +0.035 A 
ATOM     32  C   UNL     1     -30.321  13.985  10.909  0.00  0.00    +0.024 A 
ATOM     33  C   UNL     1     -30.177  12.572  11.156  0.00  0.00    +0.007 A 
ATOM     34  C   UNL     1     -30.357  11.621  10.096  0.00  0.00    -0.029 A 
ATOM     35  C   UNL     1     -30.196  10.118  10.419  0.00  0.00    +0.045 C 
ENDROOT
BRANCH  10   9
ATOM      4  C   UNL     1     -33.454   9.345   5.995  0.00  0.00    +0.077 A 
ATOM      5  C   UNL     1     -34.625   9.639   6.769  0.00  0.00    +0.048 A 
ATOM      6  C   UNL     1     -34.472  10.505   7.875  0.00  0.00    +0.116 A 
ATOM      7  N   UNL     1     -33.235  11.033   8.174  0.00  0.00    -0.223 NA
ATOM      8  C   UNL     1     -32.125  10.728   7.408  0.00  0.00    +0.220 A 
ATOM      9  N   UNL     1     -30.873  11.253   7.686  0.00  0.00    -0.283 N 
ATOM     36  H   UNL     1     -30.077  10.998   7.101  0.00  0.00    +0.155 HD
ATOM     37  N   UNL     1     -32.245   9.902   6.348  0.00  0.00    -0.214 NA
BRANCH   4   3
ATOM      1  C   UNL     1     -33.576   6.181   3.698  0.00  0.00    +0.020 A 
ATOM      2  C   UNL     1     -33.580   7.001   4.888  0.00  0.00    +0.013 A 
ATOM      3  C   UNL     1     -33.455   8.450   4.795  0.00  0.00    +0.019 A 
ATOM     38  C   UNL     1     -33.329   9.043   3.472  0.00  0.00    +0.120 A 
ATOM     39  N   UNL     1     -33.327   8.229   2.344  0.00  0.00    -0.263 NA
ATOM     40  C   UNL     1     -33.444   6.833   2.421  0.00  0.00    +0.111 A 
ENDBRANCH   4   3
ENDBRANCH  10   9
BRANCH  12  13
ATOM     13  N   UNL     1     -30.783  15.906   9.446  0.00  0.00    -0.281 N 
ATOM     14  C   UNL     1     -29.947  16.766   8.752  0.00  0.00    +0.248 C 
ATOM     30  O   UNL     1     -28.834  16.470   8.346  0.00  0.00    -0.270 OA
ATOM     31  H   UNL     1     -31.594  16.333   9.893  0.00  0.00    +0.155 HD
BRANCH  14  15
ATOM     15  C   UNL     1     -30.410  18.162   8.482  0.00  0.00    +0.037 A 
ATOM     16  C   UNL     1     -30.816  19.052   9.573  0.00  0.00    +0.013 A 
ATOM     17  C   UNL     1     -31.274  20.387   9.285  0.00  0.00    +0.005 A 
ATOM     18  C   UNL     1     -31.329  20.842   7.897  0.00  0.00    -0.033 A 
ATOM     28  C   UNL     1     -30.916  19.940   6.835  0.00  0.00    +0.005 A 
ATOM     29  C   UNL     1     -30.466  18.630   7.114  0.00  0.00    +0.013 A 
BRANCH  18  19
ATOM     19  C   UNL     1     -31.825  22.243   7.495  0.00  0.00    +0.119 C 
BRANCH  19  20
ATOM     20  N   UNL     1     -33.129  22.325   6.772  0.00  0.00    -0.302 NA
ATOM     21  C   UNL     1     -33.348  23.701   6.136  0.00  0.00    +0.066 C 
ATOM     22  C   UNL     1     -34.707  23.762   5.365  0.00  0.00    -0.064 C 
ATOM     23  N   UNL     1     -35.849  23.420   6.323  0.00  0.00    +0.379 N 
ATOM     24  C   UNL     1     -37.133  23.533   5.616  0.00  0.00    -0.096 C 
ATOM     25  H   UNL     1     -35.845  24.179   7.140  0.00  0.00    -0.082 HD
ATOM     26  C   UNL     1     -35.638  22.055   6.962  0.00  0.00    -0.064 C 
ATOM     27  C   UNL     1     -34.272  21.995   7.700  0.00  0.00    +0.066 C 
ENDBRANCH  19  20
ENDBRANCH  18  19
ENDBRANCH  14  15
ENDBRANCH  12  13
TORSDOF 6
ENDMDL
MODEL 5
REMARK VINA RESULT:      -1.4      5.658      8.108
REMARK  Name = C:\Users\Docking\Desktop\test protocol\1iep_ligandH.pdb
REMARK  8 active torsions:
REMARK  status: ('A' for Active; 'I' for Inactive)
REMARK    1  A    between atoms: _5  and  _11
REMARK    2  A    between atoms: _19  and  _21
REMARK    3  A    between atoms: _22  and  _66
REMARK    4  A    between atoms: _27  and  _30
REMARK    5  A    between atoms: _32  and  _33
REMARK    6  A    between atoms: _38  and  _43
REMARK    7  A    between atoms: _43  and  _46
REMARK    8  A    between atoms: _53  and  _55
REMARK                            x       y       z     vdW  Elec       q    Type
REMARK                         _______ _______ _______ _____ _____    ______ ____
ROOT
ATOM     10  C   UNL     1     -34.222  11.011   7.530  0.00  0.00    +0.038 A 
ATOM     11  C   UNL     1     -34.010  12.220   8.242  0.00  0.00    +0.047 A 
ATOM     12  C   UNL     1     -32.677  12.619   8.665  0.00  0.00    +0.035 A 
ATOM     32  C   UNL     1     -31.582  11.764   8.345  0.00  0.00    +0.024 A 
ATOM     33  C   UNL     1     -31.780  10.532   7.624  0.00  0.00    +0.007 A 
ATOM     34  C   UNL     1     -33.093  10.131   7.206  0.00  0.00    -0.029 A 
ATOM     35  C   UNL     1     -33.248   8.796   6.441  0.00  0.00    +0.045 C 
ENDROOT
BRANCH  10   9
ATOM      4  C   UNL     1     -37.890  11.142   4.437  0.00  0.00    +0.077 A 
ATOM      5  C   UNL     1     -37.163  11.968   3.518  0.00  0.00    +0.048 A 
ATOM      6  C   UNL     1     -35.850  12.343   3.881  0.00  0.00    +0.116 A 
ATOM      7  N   UNL     1     -35.315  11.917   5.078  0.00  0.00    -0.223 NA
ATOM      8  C   UNL     1     -36.044  11.123   5.943  0.00  0.00    +0.220 A 
ATOM      9  N   UNL     1     -35.524  10.677   7.148  0.00  0.00    -0.283 N 
ATOM     36  H   UNL     1     -36.097  10.099   7.762  0.00  0.00    +0.155 HD
ATOM     37  N   UNL     1     -37.301  10.752   5.619  0.00  0.00    -0.214 NA
BRANCH   4   3
ATOM      1  C   UNL     1     -41.071   8.877   4.209  0.00  0.00    +0.020 A 
ATOM      2  C   UNL     1     -39.711   9.291   4.462  0.00  0.00    +0.013 A 
ATOM      3  C   UNL     1     -39.287  10.660   4.194  0.00  0.00    +0.019 A 
ATOM     38  C   UNL     1     -40.272  11.592   3.667  0.00  0.00    +0.120 A 
ATOM     39  N   UNL     1     -41.575  11.164   3.432  0.00  0.00    -0.263 NA
ATOM     40  C   UNL     1     -41.994   9.849   3.685  0.00  0.00    +0.111 A 
ENDBRANCH   4   3
ENDBRANCH  10   9
BRANCH  12  13
ATOM     13  N   UNL     1     -32.400  13.830   9.397  0.00  0.00    -0.281 N 
ATOM     14  C   UNL     1     -32.361  14.005  10.770  0.00  0.00    +0.248 C 
ATOM     30  O   UNL     1     -32.770  13.189  11.583  0.00  0.00    -0.270 OA
ATOM     31  H   UNL     1     -32.211  14.660   8.834  0.00  0.00    +0.155 HD
BRANCH  14  15
ATOM     15  C   UNL     1     -31.800  15.277  11.321  0.00  0.00    +0.037 A 
ATOM     16  C   UNL     1     -32.172  15.757  12.654  0.00  0.00    +0.013 A 
ATOM     17  C   UNL     1     -31.629  16.996  13.154  0.00  0.00    +0.005 A 
ATOM     18  C   UNL     1     -30.706  17.762  12.319  0.00  0.00    -0.033 A 
ATOM     28  C   UNL     1     -30.350  17.259  11.002  0.00  0.00    +0.005 A 
ATOM     29  C   UNL     1     -30.881  16.046  10.509  0.00  0.00    +0.013 A 
BRANCH  18  19
ATOM     19  C   UNL     1     -30.095  19.104  12.763  0.00  0.00    +0.119 C 
BRANCH  19  20
ATOM     20  N   UNL     1     -30.429  20.310  11.948  0.00  0.00    -0.302 NA
ATOM     21  C   UNL     1     -29.708  21.563  12.453  0.00  0.00    +0.066 C 
ATOM     22  C   UNL     1     -30.051  22.810  11.576  0.00  0.00    -0.064 C 
ATOM     23  N   UNL     1     -31.566  23.023  11.568  0.00  0.00    +0.379 N 
ATOM     24  C   UNL     1     -31.887  24.230  10.791  0.00  0.00    -0.096 C 
ATOM     25  H   UNL     1     -31.887  23.203  12.620  0.00  0.00    -0.082 HD
ATOM     26  C   UNL     1     -32.291  21.782  11.069  0.00  0.00    -0.064 C 
ATOM     27  C   UNL     1     -31.920  20.542  11.930  0.00  0.00    +0.066 C 
ENDBRANCH  19  20
ENDBRANCH  18  19
ENDBRANCH  14  15
ENDBRANCH  12  13
TORSDOF 6
ENDMDL
