MODEL 1
REMARK VINA RESULT:      -7.8      0.000      0.000
REMARK  Name = C:\Users\Docking\Desktop\test protocol\1iep_ligandH.pdb
REMARK  8 active torsions:
REMARK  status: ('A' for Active; 'I' for Inactive)
REMARK    1  A    between atoms: _5  and  _11
REMARK    2  A    between atoms: _19  and  _21
REMARK    3  A    between atoms: _22  and  _66
REMARK    4  A    between atoms: _27  and  _30
REMARK    5  A    between atoms: _32  and  _33
REMARK    6  A    between atoms: _38  and  _43
REMARK    7  A    between atoms: _43  and  _46
REMARK    8  A    between atoms: _53  and  _55
REMARK                            x       y       z     vdW  Elec       q    Type
REMARK                         _______ _______ _______ _____ _____    ______ ____
ROOT
ATOM     10  C   UNL     1      -2.284  11.900   2.082  0.00  0.00    +0.038 A 
ATOM     11  C   UNL     1      -1.048  12.315   2.641  0.00  0.00    +0.047 A 
ATOM     12  C   UNL     1       0.141  11.483   2.538  0.00  0.00    +0.035 A 
ATOM     32  C   UNL     1       0.037  10.236   1.855  0.00  0.00    +0.024 A 
ATOM     33  C   UNL     1      -1.212   9.799   1.281  0.00  0.00    +0.007 A 
ATOM     34  C   UNL     1      -2.389  10.614   1.382  0.00  0.00    -0.029 A 
ATOM     35  C   UNL     1      -3.702  10.092   0.754  0.00  0.00    +0.045 C 
ENDROOT
BRANCH  10   9
ATOM      4  C   UNL     1      -6.245  13.357   4.367  0.00  0.00    +0.077 A 
ATOM      5  C   UNL     1      -6.106  12.347   5.375  0.00  0.00    +0.048 A 
ATOM      6  C   UNL     1      -5.006  11.467   5.265  0.00  0.00    +0.116 A 
ATOM      7  N   UNL     1      -4.116  11.598   4.221  0.00  0.00    -0.223 NA
ATOM      8  C   UNL     1      -4.280  12.583   3.264  0.00  0.00    +0.220 A 
ATOM      9  N   UNL     1      -3.394  12.738   2.210  0.00  0.00    -0.283 N 
ATOM     36  H   UNL     1      -3.553  13.473   1.521  0.00  0.00    +0.155 HD
ATOM     37  N   UNL     1      -5.324  13.434   3.346  0.00  0.00    -0.214 NA
BRANCH   4   3
ATOM      1  C   UNL     1      -9.106  15.782   5.479  0.00  0.00    +0.020 A 
ATOM      2  C   UNL     1      -8.042  14.808   5.552  0.00  0.00    +0.013 A 
ATOM      3  C   UNL     1      -7.354  14.363   4.347  0.00  0.00    +0.019 A 
ATOM     38  C   UNL     1      -7.769  14.929   3.072  0.00  0.00    +0.120 A 
ATOM     39  N   UNL     1      -8.799  15.865   3.032  0.00  0.00    -0.263 NA
ATOM     40  C   UNL     1      -9.469  16.299   4.185  0.00  0.00    +0.111 A 
ENDBRANCH   4   3
ENDBRANCH  10   9
BRANCH  12  13
ATOM     13  N   UNL     1       1.421  11.848   3.094  0.00  0.00    -0.281 N 
ATOM     14  C   UNL     1       2.275  12.855   2.676  0.00  0.00    +0.248 C 
ATOM     30  O   UNL     1       2.164  13.461   1.620  0.00  0.00    -0.270 OA
ATOM     31  H   UNL     1       1.735  11.296   3.892  0.00  0.00    +0.155 HD
BRANCH  14  15
ATOM     15  C   UNL     1       3.427  13.234   3.549  0.00  0.00    +0.037 A 
ATOM     16  C   UNL     1       4.205  12.219   4.264  0.00  0.00    +0.013 A 
ATOM     17  C   UNL     1       5.300  12.613   5.114  0.00  0.00    +0.005 A 
ATOM     18  C   UNL     1       5.625  14.030   5.253  0.00  0.00    -0.033 A 
ATOM     28  C   UNL     1       4.840  15.016   4.528  0.00  0.00    +0.005 A 
ATOM     29  C   UNL     1       3.765  14.634   3.695  0.00  0.00    +0.013 A 
BRANCH  18  19
ATOM     19  C   UNL     1       6.764  14.543   6.154  0.00  0.00    +0.119 C 
BRANCH  19  20
ATOM     20  N   UNL     1       6.530  14.522   7.629  0.00  0.00    -0.302 NA
ATOM     21  C   UNL     1       5.055  14.735   7.980  0.00  0.00    +0.066 C 
ATOM     22  C   UNL     1       4.825  14.688   9.526  0.00  0.00    -0.064 C 
ATOM     23  N   UNL     1       5.700  15.745  10.201  0.00  0.00    +0.379 N 
ATOM     24  C   UNL     1       5.443  15.743  11.648  0.00  0.00    -0.096 C 
ATOM     25  H   UNL     1       5.393  16.741   9.804  0.00  0.00    -0.082 HD
ATOM     26  C   UNL     1       7.168  15.543   9.855  0.00  0.00    -0.064 C 
ATOM     27  C   UNL     1       7.381  15.562   8.316  0.00  0.00    +0.066 C 
ENDBRANCH  19  20
ENDBRANCH  18  19
ENDBRANCH  14  15
ENDBRANCH  12  13
TORSDOF 6
ENDMDL
MODEL 2
REMARK VINA RESULT:      -7.7      6.232     13.457
REMARK  Name = C:\Users\Docking\Desktop\test protocol\1iep_ligandH.pdb
REMARK  8 active torsions:
REMARK  status: ('A' for Active; 'I' for Inactive)
REMARK    1  A    between atoms: _5  and  _11
REMARK    2  A    between atoms: _19  and  _21
REMARK    3  A    between atoms: _22  and  _66
REMARK    4  A    between atoms: _27  and  _30
REMARK    5  A    between atoms: _32  and  _33
REMARK    6  A    between atoms: _38  and  _43
REMARK    7  A    between atoms: _43  and  _46
REMARK    8  A    between atoms: _53  and  _55
REMARK                            x       y       z     vdW  Elec       q    Type
REMARK                         _______ _______ _______ _____ _____    ______ ____
ROOT
ATOM     10  C   UNL     1      -4.113  14.506   3.649  0.00  0.00    +0.038 A 
ATOM     11  C   UNL     1      -4.647  15.162   2.510  0.00  0.00    +0.047 A 
ATOM     12  C   UNL     1      -5.624  16.231   2.646  0.00  0.00    +0.035 A 
ATOM     32  C   UNL     1      -6.032  16.610   3.959  0.00  0.00    +0.024 A 
ATOM     33  C   UNL     1      -5.500  15.954   5.127  0.00  0.00    +0.007 A 
ATOM     34  C   UNL     1      -4.539  14.896   4.998  0.00  0.00    -0.029 A 
ATOM     35  C   UNL     1      -4.007  14.224   6.285  0.00  0.00    +0.045 C 
ENDROOT
BRANCH  10   9
ATOM      4  C   UNL     1      -2.908  10.077   2.246  0.00  0.00    +0.077 A 
ATOM      5  C   UNL     1      -4.259   9.760   1.885  0.00  0.00    +0.048 A 
ATOM      6  C   UNL     1      -5.236  10.762   2.082  0.00  0.00    +0.116 A 
ATOM      7  N   UNL     1      -4.876  11.986   2.602  0.00  0.00    -0.223 NA
ATOM      8  C   UNL     1      -3.564  12.259   2.942  0.00  0.00    +0.220 A 
ATOM      9  N   UNL     1      -3.178  13.486   3.459  0.00  0.00    -0.283 N 
ATOM     36  H   UNL     1      -2.201  13.645   3.704  0.00  0.00    +0.155 HD
ATOM     37  N   UNL     1      -2.613  11.318   2.764  0.00  0.00    -0.214 NA
BRANCH   4   3
ATOM      1  C   UNL     1       0.694   8.600   1.863  0.00  0.00    +0.020 A 
ATOM      2  C   UNL     1      -0.375   9.561   2.009  0.00  0.00    +0.013 A 
ATOM      3  C   UNL     1      -1.763   9.125   2.094  0.00  0.00    +0.019 A 
ATOM     38  C   UNL     1      -2.037   7.697   2.027  0.00  0.00    +0.120 A 
ATOM     39  N   UNL     1      -0.988   6.795   1.885  0.00  0.00    -0.263 NA
ATOM     40  C   UNL     1       0.352   7.204   1.800  0.00  0.00    +0.111 A 
ENDBRANCH   4   3
ENDBRANCH  10   9
BRANCH  12  13
ATOM     13  N   UNL     1      -6.207  16.928   1.527  0.00  0.00    -0.281 N 
ATOM     14  C   UNL     1      -7.445  16.715   0.942  0.00  0.00    +0.248 C 
ATOM     30  O   UNL     1      -8.154  15.744   1.161  0.00  0.00    -0.270 OA
ATOM     31  H   UNL     1      -5.638  17.668   1.115  0.00  0.00    +0.155 HD
BRANCH  14  15
ATOM     15  C   UNL     1      -7.963  17.718  -0.037  0.00  0.00    +0.037 A 
ATOM     16  C   UNL     1      -9.375  17.739  -0.427  0.00  0.00    +0.013 A 
ATOM     17  C   UNL     1      -9.846  18.707  -1.387  0.00  0.00    +0.005 A 
ATOM     18  C   UNL     1      -8.902  19.662  -1.962  0.00  0.00    -0.033 A 
ATOM     28  C   UNL     1      -7.508  19.622  -1.553  0.00  0.00    +0.005 A 
ATOM     29  C   UNL     1      -7.043  18.675  -0.614  0.00  0.00    +0.013 A 
BRANCH  18  19
ATOM     19  C   UNL     1      -9.312  20.715  -3.009  0.00  0.00    +0.119 C 
BRANCH  19  20
ATOM     20  N   UNL     1     -10.435  21.633  -2.652  0.00  0.00    -0.302 NA
ATOM     21  C   UNL     1     -10.695  22.673  -3.745  0.00  0.00    +0.066 C 
ATOM     22  C   UNL     1     -11.888  23.611  -3.365  0.00  0.00    -0.064 C 
ATOM     23  N   UNL     1     -11.592  24.292  -2.028  0.00  0.00    +0.379 N 
ATOM     24  C   UNL     1     -12.685  25.218  -1.697  0.00  0.00    -0.096 C 
ATOM     25  H   UNL     1     -10.663  24.896  -2.155  0.00  0.00    -0.082 HD
ATOM     26  C   UNL     1     -11.329  23.265  -0.937  0.00  0.00    -0.064 C 
ATOM     27  C   UNL     1     -10.161  22.320  -1.337  0.00  0.00    +0.066 C 
ENDBRANCH  19  20
ENDBRANCH  18  19
ENDBRANCH  14  15
ENDBRANCH  12  13
TORSDOF 6
ENDMDL
MODEL 3
REMARK VINA RESULT:      -7.7      1.630      2.069
REMARK  Name = C:\Users\Docking\Desktop\test protocol\1iep_ligandH.pdb
REMARK  8 active torsions:
REMARK  status: ('A' for Active; 'I' for Inactive)
REMARK    1  A    between atoms: _5  and  _11
REMARK    2  A    between atoms: _19  and  _21
REMARK    3  A    between atoms: _22  and  _66
REMARK    4  A    between atoms: _27  and  _30
REMARK    5  A    between atoms: _32  and  _33
REMARK    6  A    between atoms: _38  and  _43
REMARK    7  A    between atoms: _43  and  _46
REMARK    8  A    between atoms: _53  and  _55
REMARK                            x       y       z     vdW  Elec       q    Type
REMARK                         _______ _______ _______ _____ _____    ______ ____
ROOT
ATOM     10  C   UNL     1      -2.644  11.549   2.461  0.00  0.00    +0.038 A 
ATOM     11  C   UNL     1      -1.472  12.309   2.704  0.00  0.00    +0.047 A 
ATOM     12  C   UNL     1      -0.153  11.696   2.655  0.00  0.00    +0.035 A 
ATOM     32  C   UNL     1      -0.066  10.306   2.352  0.00  0.00    +0.024 A 
ATOM     33  C   UNL     1      -1.247   9.518   2.104  0.00  0.00    +0.007 A 
ATOM     34  C   UNL     1      -2.551  10.116   2.153  0.00  0.00    -0.029 A 
ATOM     35  C   UNL     1      -3.783   9.222   1.885  0.00  0.00    +0.045 C 
ENDROOT
BRANCH  10   9
ATOM      4  C   UNL     1      -5.981  14.102   4.780  0.00  0.00    +0.077 A 
ATOM      5  C   UNL     1      -5.200  14.141   5.983  0.00  0.00    +0.048 A 
ATOM      6  C   UNL     1      -3.948  13.486   5.965  0.00  0.00    +0.116 A 
ATOM      7  N   UNL     1      -3.520  12.843   4.824  0.00  0.00    -0.223 NA
ATOM      8  C   UNL     1      -4.299  12.823   3.682  0.00  0.00    +0.220 A 
ATOM      9  N   UNL     1      -3.884  12.189   2.521  0.00  0.00    -0.283 N 
ATOM     36  H   UNL     1      -4.491  12.190   1.702  0.00  0.00    +0.155 HD
ATOM     37  N   UNL     1      -5.499  13.440   3.674  0.00  0.00    -0.214 NA
BRANCH   4   3
ATOM      1  C   UNL     1      -9.299  16.022   5.562  0.00  0.00    +0.020 A 
ATOM      2  C   UNL     1      -8.003  15.411   5.749  0.00  0.00    +0.013 A 
ATOM      3  C   UNL     1      -7.324  14.750   4.642  0.00  0.00    +0.019 A 
ATOM     38  C   UNL     1      -7.988  14.726   3.347  0.00  0.00    +0.120 A 
ATOM     39  N   UNL     1      -9.236  15.321   3.197  0.00  0.00    -0.263 NA
ATOM     40  C   UNL     1      -9.900  15.959   4.256  0.00  0.00    +0.111 A 
ENDBRANCH   4   3
ENDBRANCH  10   9
BRANCH  12  13
ATOM     13  N   UNL     1       1.072  12.415   2.900  0.00  0.00    -0.281 N 
ATOM     14  C   UNL     1       1.952  12.941   1.969  0.00  0.00    +0.248 C 
ATOM     30  O   UNL     1       1.929  12.684   0.774  0.00  0.00    -0.270 OA
ATOM     31  H   UNL     1       1.320  12.555   3.880  0.00  0.00    +0.155 HD
BRANCH  14  15
ATOM     15  C   UNL     1       3.023  13.875   2.433  0.00  0.00    +0.037 A 
ATOM     16  C   UNL     1       3.478  14.986   1.595  0.00  0.00    +0.013 A 
ATOM     17  C   UNL     1       4.524  15.862   2.060  0.00  0.00    +0.005 A 
ATOM     18  C   UNL     1       5.121  15.630   3.373  0.00  0.00    -0.033 A 
ATOM     28  C   UNL     1       4.646  14.523   4.187  0.00  0.00    +0.005 A 
ATOM     29  C   UNL     1       3.622  13.662   3.734  0.00  0.00    +0.013 A 
BRANCH  18  19
ATOM     19  C   UNL     1       6.256  16.502   3.941  0.00  0.00    +0.119 C 
BRANCH  19  20
ATOM     20  N   UNL     1       6.795  16.133   5.284  0.00  0.00    -0.302 NA
ATOM     21  C   UNL     1       6.160  16.962   6.405  0.00  0.00    +0.066 C 
ATOM     22  C   UNL     1       6.718  16.548   7.805  0.00  0.00    -0.064 C 
ATOM     23  N   UNL     1       8.240  16.704   7.811  0.00  0.00    +0.379 N 
ATOM     24  C   UNL     1       8.762  16.371   9.145  0.00  0.00    -0.096 C 
ATOM     25  H   UNL     1       8.470  17.777   7.616  0.00  0.00    -0.082 HD
ATOM     26  C   UNL     1       8.879  15.886   6.698  0.00  0.00    -0.064 C 
ATOM     27  C   UNL     1       8.296  16.285   5.314  0.00  0.00    +0.066 C 
ENDBRANCH  19  20
ENDBRANCH  18  19
ENDBRANCH  14  15
ENDBRANCH  12  13
TORSDOF 6
ENDMDL
MODEL 4
REMARK VINA RESULT:      -7.7      6.226     13.013
REMARK  Name = C:\Users\Docking\Desktop\test protocol\1iep_ligandH.pdb
REMARK  8 active torsions:
REMARK  status: ('A' for Active; 'I' for Inactive)
REMARK    1  A    between atoms: _5  and  _11
REMARK    2  A    between atoms: _19  and  _21
REMARK    3  A    between atoms: _22  and  _66
REMARK    4  A    between atoms: _27  and  _30
REMARK    5  A    between atoms: _32  and  _33
REMARK    6  A    between atoms: _38  and  _43
REMARK    7  A    between atoms: _43  and  _46
REMARK    8  A    between atoms: _53  and  _55
REMARK                            x       y       z     vdW  Elec       q    Type
REMARK                         _______ _______ _______ _____ _____    ______ ____
ROOT
ATOM     10  C   UNL     1      -4.009  14.456   3.734  0.00  0.00    +0.038 A 
ATOM     11  C   UNL     1      -4.428  15.230   2.622  0.00  0.00    +0.047 A 
ATOM     12  C   UNL     1      -5.367  16.330   2.782  0.00  0.00    +0.035 A 
ATOM     32  C   UNL     1      -5.857  16.615   4.090  0.00  0.00    +0.024 A 
ATOM     33  C   UNL     1      -5.441  15.838   5.231  0.00  0.00    +0.007 A 
ATOM     34  C   UNL     1      -4.518  14.750   5.079  0.00  0.00    -0.029 A 
ATOM     35  C   UNL     1      -4.112  13.947   6.337  0.00  0.00    +0.045 C 
ENDROOT
BRANCH  10   9
ATOM      4  C   UNL     1      -2.934  10.031   2.217  0.00  0.00    +0.077 A 
ATOM      5  C   UNL     1      -4.292   9.768   1.837  0.00  0.00    +0.048 A 
ATOM      6  C   UNL     1      -5.237  10.795   2.055  0.00  0.00    +0.116 A 
ATOM      7  N   UNL     1      -4.843  11.992   2.612  0.00  0.00    -0.223 NA
ATOM      8  C   UNL     1      -3.526  12.213   2.969  0.00  0.00    +0.220 A 
ATOM      9  N   UNL     1      -3.105  13.412   3.523  0.00  0.00    -0.283 N 
ATOM     36  H   UNL     1      -2.126  13.533   3.779  0.00  0.00    +0.155 HD
ATOM     37  N   UNL     1      -2.604  11.248   2.772  0.00  0.00    -0.214 NA
BRANCH   4   3
ATOM      1  C   UNL     1       0.585   8.453   1.559  0.00  0.00    +0.020 A 
ATOM      2  C   UNL     1      -0.456   9.444   1.713  0.00  0.00    +0.013 A 
ATOM      3  C   UNL     1      -1.818   9.047   2.046  0.00  0.00    +0.019 A 
ATOM     38  C   UNL     1      -2.097   7.629   2.219  0.00  0.00    +0.120 A 
ATOM     39  N   UNL     1      -1.075   6.698   2.064  0.00  0.00    -0.263 NA
ATOM     40  C   UNL     1       0.240   7.068   1.742  0.00  0.00    +0.111 A 
ENDBRANCH   4   3
ENDBRANCH  10   9
BRANCH  12  13
ATOM     13  N   UNL     1      -5.835  17.146   1.689  0.00  0.00    -0.281 N 
ATOM     14  C   UNL     1      -5.152  18.149   1.022  0.00  0.00    +0.248 C 
ATOM     30  O   UNL     1      -4.103  18.645   1.406  0.00  0.00    -0.270 OA
ATOM     31  H   UNL     1      -6.786  16.961   1.369  0.00  0.00    +0.155 HD
BRANCH  14  15
ATOM     15  C   UNL     1      -5.723  18.690  -0.249  0.00  0.00    +0.037 A 
ATOM     16  C   UNL     1      -4.858  19.217  -1.307  0.00  0.00    +0.013 A 
ATOM     17  C   UNL     1      -5.436  19.748  -2.516  0.00  0.00    +0.005 A 
ATOM     18  C   UNL     1      -6.888  19.753  -2.674  0.00  0.00    -0.033 A 
ATOM     28  C   UNL     1      -7.723  19.219  -1.610  0.00  0.00    +0.005 A 
ATOM     29  C   UNL     1      -7.160  18.698  -0.423  0.00  0.00    +0.013 A 
BRANCH  18  19
ATOM     19  C   UNL     1      -7.592  20.320  -3.921  0.00  0.00    +0.119 C 
BRANCH  19  20
ATOM     20  N   UNL     1      -8.482  21.503  -3.725  0.00  0.00    -0.302 NA
ATOM     21  C   UNL     1      -9.809  21.354  -4.475  0.00  0.00    +0.066 C 
ATOM     22  C   UNL     1     -10.737  22.590  -4.241  0.00  0.00    -0.064 C 
ATOM     23  N   UNL     1     -10.008  23.862  -4.679  0.00  0.00    +0.379 N 
ATOM     24  C   UNL     1     -10.899  25.020  -4.514  0.00  0.00    -0.096 C 
ATOM     25  H   UNL     1      -9.778  23.763  -5.765  0.00  0.00    -0.082 HD
ATOM     26  C   UNL     1      -8.686  24.016  -3.940  0.00  0.00    -0.064 C 
ATOM     27  C   UNL     1      -7.783  22.769  -4.155  0.00  0.00    +0.066 C 
ENDBRANCH  19  20
ENDBRANCH  18  19
ENDBRANCH  14  15
ENDBRANCH  12  13
TORSDOF 6
ENDMDL
MODEL 5
REMARK VINA RESULT:      -7.5      8.525     15.721
REMARK  Name = C:\Users\Docking\Desktop\test protocol\1iep_ligandH.pdb
REMARK  8 active torsions:
REMARK  status: ('A' for Active; 'I' for Inactive)
REMARK    1  A    between atoms: _5  and  _11
REMARK    2  A    between atoms: _19  and  _21
REMARK    3  A    between atoms: _22  and  _66
REMARK    4  A    between atoms: _27  and  _30
REMARK    5  A    between atoms: _32  and  _33
REMARK    6  A    between atoms: _38  and  _43
REMARK    7  A    between atoms: _43  and  _46
REMARK    8  A    between atoms: _53  and  _55
REMARK                            x       y       z     vdW  Elec       q    Type
REMARK                         _______ _______ _______ _____ _____    ______ ____
ROOT
ATOM     10  C   UNL     1     -10.155  15.915   0.746  0.00  0.00    +0.038 A 
ATOM     11  C   UNL     1     -10.020  17.224   0.217  0.00  0.00    +0.047 A 
ATOM     12  C   UNL     1     -11.143  17.901  -0.413  0.00  0.00    +0.035 A 
ATOM     32  C   UNL     1     -12.391  17.215  -0.484  0.00  0.00    +0.024 A 
ATOM     33  C   UNL     1     -12.545  15.884   0.048  0.00  0.00    +0.007 A 
ATOM     34  C   UNL     1     -11.440  15.210   0.668  0.00  0.00    -0.029 A 
ATOM     35  C   UNL     1     -11.661  13.781   1.214  0.00  0.00    +0.045 C 
ENDROOT
BRANCH  10   9
ATOM      4  C   UNL     1      -7.441  14.874   4.565  0.00  0.00    +0.077 A 
ATOM      5  C   UNL     1      -8.295  15.614   5.448  0.00  0.00    +0.048 A 
ATOM      6  C   UNL     1      -9.418  16.255   4.879  0.00  0.00    +0.116 A 
ATOM      7  N   UNL     1      -9.660  16.154   3.526  0.00  0.00    -0.223 NA
ATOM      8  C   UNL     1      -8.815  15.434   2.702  0.00  0.00    +0.220 A 
ATOM      9  N   UNL     1      -9.043  15.313   1.340  0.00  0.00    -0.283 N 
ATOM     36  H   UNL     1      -8.392  14.778   0.765  0.00  0.00    +0.155 HD
ATOM     37  N   UNL     1      -7.735  14.814   3.221  0.00  0.00    -0.214 NA
BRANCH   4   3
ATOM      1  C   UNL     1      -4.847  12.041   5.305  0.00  0.00    +0.020 A 
ATOM      2  C   UNL     1      -6.049  12.701   4.852  0.00  0.00    +0.013 A 
ATOM      3  C   UNL     1      -6.217  14.140   5.017  0.00  0.00    +0.019 A 
ATOM     38  C   UNL     1      -5.140  14.887   5.650  0.00  0.00    +0.120 A 
ATOM     39  N   UNL     1      -3.994  14.223   6.078  0.00  0.00    -0.263 NA
ATOM     40  C   UNL     1      -3.823  12.839   5.926  0.00  0.00    +0.111 A 
ENDBRANCH   4   3
ENDBRANCH  10   9
BRANCH  12  13
ATOM     13  N   UNL     1     -11.064  19.226  -0.974  0.00  0.00    -0.281 N 
ATOM     14  C   UNL     1      -9.932  19.912  -1.383  0.00  0.00    +0.248 C 
ATOM     30  O   UNL     1      -8.787  19.569  -1.127  0.00  0.00    -0.270 OA
ATOM     31  H   UNL     1     -11.951  19.719  -1.085  0.00  0.00    +0.155 HD
BRANCH  14  15
ATOM     15  C   UNL     1     -10.095  21.167  -2.177  0.00  0.00    +0.037 A 
ATOM     16  C   UNL     1      -9.605  22.453  -1.675  0.00  0.00    +0.013 A 
ATOM     17  C   UNL     1      -9.791  23.652  -2.455  0.00  0.00    +0.005 A 
ATOM     18  C   UNL     1     -10.469  23.569  -3.746  0.00  0.00    -0.033 A 
ATOM     28  C   UNL     1     -10.940  22.279  -4.222  0.00  0.00    +0.005 A 
ATOM     29  C   UNL     1     -10.761  21.102  -3.461  0.00  0.00    +0.013 A 
BRANCH  18  19
ATOM     19  C   UNL     1     -10.730  24.799  -4.635  0.00  0.00    +0.119 C 
BRANCH  19  20
ATOM     20  N   UNL     1     -10.242  24.740  -6.045  0.00  0.00    -0.302 NA
ATOM     21  C   UNL     1      -9.178  25.803  -6.330  0.00  0.00    +0.066 C 
ATOM     22  C   UNL     1      -8.662  25.712  -7.803  0.00  0.00    -0.064 C 
ATOM     23  N   UNL     1      -9.844  25.858  -8.764  0.00  0.00    +0.379 N 
ATOM     24  C   UNL     1      -9.355  25.830 -10.150  0.00  0.00    -0.096 C 
ATOM     25  H   UNL     1     -10.303  26.858  -8.586  0.00  0.00    -0.082 HD
ATOM     26  C   UNL     1     -10.908  24.806  -8.485  0.00  0.00    -0.064 C 
ATOM     27  C   UNL     1     -11.392  24.886  -7.011  0.00  0.00    +0.066 C 
ENDBRANCH  19  20
ENDBRANCH  18  19
ENDBRANCH  14  15
ENDBRANCH  12  13
TORSDOF 6
ENDMDL
