MODEL 1
REMARK VINA RESULT:      -8.0      0.000      0.000
REMARK  Name = C:\Users\Docking\Desktop\test protocol\1iep_ligandH.pdb
REMARK  8 active torsions:
REMARK  status: ('A' for Active; 'I' for Inactive)
REMARK    1  A    between atoms: _5  and  _11
REMARK    2  A    between atoms: _19  and  _21
REMARK    3  A    between atoms: _22  and  _66
REMARK    4  A    between atoms: _27  and  _30
REMARK    5  A    between atoms: _32  and  _33
REMARK    6  A    between atoms: _38  and  _43
REMARK    7  A    between atoms: _43  and  _46
REMARK    8  A    between atoms: _53  and  _55
REMARK                            x       y       z     vdW  Elec       q    Type
REMARK                         _______ _______ _______ _____ _____    ______ ____
ROOT
ATOM     10  C   UNL     1      -9.788  23.196  -2.085  0.00  0.00    +0.038 A 
ATOM     11  C   UNL     1      -9.492  22.087  -1.252  0.00  0.00    +0.047 A 
ATOM     12  C   UNL     1      -8.995  20.839  -1.809  0.00  0.00    +0.035 A 
ATOM     32  C   UNL     1      -8.807  20.756  -3.219  0.00  0.00    +0.024 A 
ATOM     33  C   UNL     1      -9.103  21.873  -4.081  0.00  0.00    +0.007 A 
ATOM     34  C   UNL     1      -9.597  23.106  -3.538  0.00  0.00    -0.029 A 
ATOM     35  C   UNL     1      -9.903  24.269  -4.510  0.00  0.00    +0.045 C 
ENDROOT
BRANCH  10   9
ATOM      4  C   UNL     1     -13.334  26.221  -0.937  0.00  0.00    +0.077 A 
ATOM      5  C   UNL     1     -14.319  25.406  -1.587  0.00  0.00    +0.048 A 
ATOM      6  C   UNL     1     -13.871  24.220  -2.211  0.00  0.00    +0.116 A 
ATOM      7  N   UNL     1     -12.535  23.884  -2.181  0.00  0.00    -0.223 NA
ATOM      8  C   UNL     1     -11.610  24.693  -1.547  0.00  0.00    +0.220 A 
ATOM      9  N   UNL     1     -10.263  24.371  -1.497  0.00  0.00    -0.283 N 
ATOM     36  H   UNL     1      -9.612  24.998  -1.025  0.00  0.00    +0.155 HD
ATOM     37  N   UNL     1     -12.013  25.832  -0.945  0.00  0.00    -0.214 NA
BRANCH   4   3
ATOM      1  C   UNL     1     -14.721  29.784  -0.111  0.00  0.00    +0.020 A 
ATOM      2  C   UNL     1     -14.442  28.566  -0.837  0.00  0.00    +0.013 A 
ATOM      3  C   UNL     1     -13.652  27.502  -0.231  0.00  0.00    +0.019 A 
ATOM     38  C   UNL     1     -13.155  27.703   1.122  0.00  0.00    +0.120 A 
ATOM     39  N   UNL     1     -13.439  28.887   1.796  0.00  0.00    -0.263 NA
ATOM     40  C   UNL     1     -14.196  29.918   1.222  0.00  0.00    +0.111 A 
ENDBRANCH   4   3
ENDBRANCH  10   9
BRANCH  12  13
ATOM     13  N   UNL     1      -8.685  19.677  -1.013  0.00  0.00    -0.281 N 
ATOM     14  C   UNL     1      -7.446  19.096  -0.800  0.00  0.00    +0.248 C 
ATOM     30  O   UNL     1      -6.438  19.364  -1.437  0.00  0.00    -0.270 OA
ATOM     31  H   UNL     1      -9.476  19.228  -0.551  0.00  0.00    +0.155 HD
BRANCH  14  15
ATOM     15  C   UNL     1      -7.309  18.057   0.266  0.00  0.00    +0.037 A 
ATOM     16  C   UNL     1      -6.084  17.941   1.061  0.00  0.00    +0.013 A 
ATOM     17  C   UNL     1      -5.972  16.919   2.072  0.00  0.00    +0.005 A 
ATOM     18  C   UNL     1      -7.090  16.005   2.293  0.00  0.00    -0.033 A 
ATOM     28  C   UNL     1      -8.296  16.146   1.494  0.00  0.00    +0.005 A 
ATOM     29  C   UNL     1      -8.409  17.146   0.502  0.00  0.00    +0.013 A 
BRANCH  18  19
ATOM     19  C   UNL     1      -7.050  14.872   3.335  0.00  0.00    +0.119 C 
BRANCH  19  20
ATOM     20  N   UNL     1      -6.019  13.807   3.148  0.00  0.00    -0.302 NA
ATOM     21  C   UNL     1      -6.164  13.098   1.799  0.00  0.00    +0.066 C 
ATOM     22  C   UNL     1      -5.064  12.003   1.610  0.00  0.00    -0.064 C 
ATOM     23  N   UNL     1      -5.145  10.999   2.762  0.00  0.00    +0.379 N 
ATOM     24  C   UNL     1      -4.150   9.936   2.557  0.00  0.00    -0.096 C 
ATOM     25  H   UNL     1      -6.155  10.528   2.729  0.00  0.00    -0.082 HD
ATOM     26  C   UNL     1      -5.005  11.697   4.107  0.00  0.00    -0.064 C 
ATOM     27  C   UNL     1      -6.084  12.803   4.272  0.00  0.00    +0.066 C 
ENDBRANCH  19  20
ENDBRANCH  18  19
ENDBRANCH  14  15
ENDBRANCH  12  13
TORSDOF 6
ENDMDL
MODEL 2
REMARK VINA RESULT:      -7.8      2.095      3.167
REMARK  Name = C:\Users\Docking\Desktop\test protocol\1iep_ligandH.pdb
REMARK  8 active torsions:
REMARK  status: ('A' for Active; 'I' for Inactive)
REMARK    1  A    between atoms: _5  and  _11
REMARK    2  A    between atoms: _19  and  _21
REMARK    3  A    between atoms: _22  and  _66
REMARK    4  A    between atoms: _27  and  _30
REMARK    5  A    between atoms: _32  and  _33
REMARK    6  A    between atoms: _38  and  _43
REMARK    7  A    between atoms: _43  and  _46
REMARK    8  A    between atoms: _53  and  _55
REMARK                            x       y       z     vdW  Elec       q    Type
REMARK                         _______ _______ _______ _____ _____    ______ ____
ROOT
ATOM     10  C   UNL     1      -9.932  23.354  -2.280  0.00  0.00    +0.038 A 
ATOM     11  C   UNL     1      -9.811  22.180  -1.492  0.00  0.00    +0.047 A 
ATOM     12  C   UNL     1      -9.384  20.920  -2.080  0.00  0.00    +0.035 A 
ATOM     32  C   UNL     1      -9.085  20.892  -3.473  0.00  0.00    +0.024 A 
ATOM     33  C   UNL     1      -9.204  22.075  -4.289  0.00  0.00    +0.007 A 
ATOM     34  C   UNL     1      -9.627  23.320  -3.715  0.00  0.00    -0.029 A 
ATOM     35  C   UNL     1      -9.743  24.555  -4.639  0.00  0.00    +0.045 C 
ENDROOT
BRANCH  10   9
ATOM      4  C   UNL     1     -13.338  26.454  -0.927  0.00  0.00    +0.077 A 
ATOM      5  C   UNL     1     -14.376  25.664  -1.523  0.00  0.00    +0.048 A 
ATOM      6  C   UNL     1     -13.992  24.470  -2.174  0.00  0.00    +0.116 A 
ATOM      7  N   UNL     1     -12.664  24.104  -2.219  0.00  0.00    -0.223 NA
ATOM      8  C   UNL     1     -11.687  24.890  -1.636  0.00  0.00    +0.220 A 
ATOM      9  N   UNL     1     -10.346  24.537  -1.663  0.00  0.00    -0.283 N 
ATOM     36  H   UNL     1      -9.655  25.147  -1.228  0.00  0.00    +0.155 HD
ATOM     37  N   UNL     1     -12.028  26.035  -1.010  0.00  0.00    -0.214 NA
BRANCH   4   3
ATOM      1  C   UNL     1     -13.184  29.347   1.702  0.00  0.00    +0.020 A 
ATOM      2  C   UNL     1     -12.909  28.092   1.041  0.00  0.00    +0.013 A 
ATOM      3  C   UNL     1     -13.586  27.740  -0.201  0.00  0.00    +0.019 A 
ATOM     38  C   UNL     1     -14.542  28.688  -0.753  0.00  0.00    +0.120 A 
ATOM     39  N   UNL     1     -14.788  29.888  -0.093  0.00  0.00    -0.263 NA
ATOM     40  C   UNL     1     -14.144  30.236   1.103  0.00  0.00    +0.111 A 
ENDBRANCH   4   3
ENDBRANCH  10   9
BRANCH  12  13
ATOM     13  N   UNL     1      -9.251  19.695  -1.332  0.00  0.00    -0.281 N 
ATOM     14  C   UNL     1      -8.084  19.067  -0.926  0.00  0.00    +0.248 C 
ATOM     30  O   UNL     1      -6.968  19.355  -1.331  0.00  0.00    -0.270 OA
ATOM     31  H   UNL     1     -10.122  19.234  -1.070  0.00  0.00    +0.155 HD
BRANCH  14  15
ATOM     15  C   UNL     1      -8.172  17.949   0.062  0.00  0.00    +0.037 A 
ATOM     16  C   UNL     1      -9.445  17.279   0.340  0.00  0.00    +0.013 A 
ATOM     17  C   UNL     1      -9.505  16.215   1.310  0.00  0.00    +0.005 A 
ATOM     18  C   UNL     1      -8.287  15.813   2.009  0.00  0.00    -0.033 A 
ATOM     28  C   UNL     1      -7.036  16.491   1.710  0.00  0.00    +0.005 A 
ATOM     29  C   UNL     1      -6.974  17.536   0.760  0.00  0.00    +0.013 A 
BRANCH  18  19
ATOM     19  C   UNL     1      -8.262  14.701   3.075  0.00  0.00    +0.119 C 
BRANCH  19  20
ATOM     20  N   UNL     1      -9.043  14.936   4.325  0.00  0.00    -0.302 NA
ATOM     21  C   UNL     1      -8.389  14.278   5.544  0.00  0.00    +0.066 C 
ATOM     22  C   UNL     1      -9.208  14.552   6.847  0.00  0.00    -0.064 C 
ATOM     23  N   UNL     1     -10.639  14.046   6.662  0.00  0.00    +0.379 N 
ATOM     24  C   UNL     1     -11.396  14.250   7.906  0.00  0.00    -0.096 C 
ATOM     25  H   UNL     1     -10.588  12.949   6.473  0.00  0.00    -0.082 HD
ATOM     26  C   UNL     1     -11.297  14.693   5.451  0.00  0.00    -0.064 C 
ATOM     27  C   UNL     1     -10.460  14.439   4.167  0.00  0.00    +0.066 C 
ENDBRANCH  19  20
ENDBRANCH  18  19
ENDBRANCH  14  15
ENDBRANCH  12  13
TORSDOF 6
ENDMDL
MODEL 3
REMARK VINA RESULT:      -7.7      8.994     14.059
REMARK  Name = C:\Users\Docking\Desktop\test protocol\1iep_ligandH.pdb
REMARK  8 active torsions:
REMARK  status: ('A' for Active; 'I' for Inactive)
REMARK    1  A    between atoms: _5  and  _11
REMARK    2  A    between atoms: _19  and  _21
REMARK    3  A    between atoms: _22  and  _66
REMARK    4  A    between atoms: _27  and  _30
REMARK    5  A    between atoms: _32  and  _33
REMARK    6  A    between atoms: _38  and  _43
REMARK    7  A    between atoms: _43  and  _46
REMARK    8  A    between atoms: _53  and  _55
REMARK                            x       y       z     vdW  Elec       q    Type
REMARK                         _______ _______ _______ _____ _____    ______ ____
ROOT
ATOM     10  C   UNL     1      -6.733  15.013   3.308  0.00  0.00    +0.038 A 
ATOM     11  C   UNL     1      -7.597  14.415   4.261  0.00  0.00    +0.047 A 
ATOM     12  C   UNL     1      -8.192  15.197   5.333  0.00  0.00    +0.035 A 
ATOM     32  C   UNL     1      -7.888  16.588   5.403  0.00  0.00    +0.024 A 
ATOM     33  C   UNL     1      -7.011  17.212   4.444  0.00  0.00    +0.007 A 
ATOM     34  C   UNL     1      -6.419  16.445   3.386  0.00  0.00    -0.029 A 
ATOM     35  C   UNL     1      -5.481  17.166   2.390  0.00  0.00    +0.045 C 
ENDROOT
BRANCH  10   9
ATOM      4  C   UNL     1      -3.362  12.047   1.613  0.00  0.00    +0.077 A 
ATOM      5  C   UNL     1      -2.606  12.114   2.831  0.00  0.00    +0.048 A 
ATOM      6  C   UNL     1      -3.116  12.930   3.867  0.00  0.00    +0.116 A 
ATOM      7  N   UNL     1      -4.294  13.621   3.687  0.00  0.00    -0.223 NA
ATOM      8  C   UNL     1      -4.997  13.535   2.499  0.00  0.00    +0.220 A 
ATOM      9  N   UNL     1      -6.189  14.215   2.299  0.00  0.00    -0.283 N 
ATOM     36  H   UNL     1      -6.674  14.131   1.406  0.00  0.00    +0.155 HD
ATOM     37  N   UNL     1      -4.531  12.764   1.495  0.00  0.00    -0.214 NA
BRANCH   4   3
ATOM      1  C   UNL     1      -1.724  10.900  -1.749  0.00  0.00    +0.020 A 
ATOM      2  C   UNL     1      -2.088  11.734  -0.627  0.00  0.00    +0.013 A 
ATOM      3  C   UNL     1      -2.955  11.226   0.429  0.00  0.00    +0.019 A 
ATOM     38  C   UNL     1      -3.441   9.859   0.318  0.00  0.00    +0.120 A 
ATOM     39  N   UNL     1      -3.076   9.080  -0.775  0.00  0.00    -0.263 NA
ATOM     40  C   UNL     1      -2.243   9.558  -1.798  0.00  0.00    +0.111 A 
ENDBRANCH   4   3
ENDBRANCH  10   9
BRANCH  12  13
ATOM     13  N   UNL     1      -9.070  14.642   6.333  0.00  0.00    -0.281 N 
ATOM     14  C   UNL     1     -10.453  14.571   6.307  0.00  0.00    +0.248 C 
ATOM     30  O   UNL     1     -11.161  15.169   5.511  0.00  0.00    -0.270 OA
ATOM     31  H   UNL     1      -8.617  14.256   7.161  0.00  0.00    +0.155 HD
BRANCH  14  15
ATOM     15  C   UNL     1     -11.151  13.724   7.321  0.00  0.00    +0.037 A 
ATOM     16  C   UNL     1     -12.549  13.320   7.143  0.00  0.00    +0.013 A 
ATOM     17  C   UNL     1     -13.203  12.517   8.145  0.00  0.00    +0.005 A 
ATOM     18  C   UNL     1     -12.460  12.111   9.335  0.00  0.00    -0.033 A 
ATOM     28  C   UNL     1     -11.074  12.520   9.484  0.00  0.00    +0.005 A 
ATOM     29  C   UNL     1     -10.429  13.308   8.505  0.00  0.00    +0.013 A 
BRANCH  18  19
ATOM     19  C   UNL     1     -13.085  11.271  10.465  0.00  0.00    +0.119 C 
BRANCH  19  20
ATOM     20  N   UNL     1     -13.325  11.954  11.771  0.00  0.00    -0.302 NA
ATOM     21  C   UNL     1     -13.942  13.343  11.589  0.00  0.00    +0.066 C 
ATOM     22  C   UNL     1     -14.207  14.034  12.966  0.00  0.00    -0.064 C 
ATOM     23  N   UNL     1     -12.896  14.123  13.749  0.00  0.00    +0.379 N 
ATOM     24  C   UNL     1     -13.130  14.824  15.020  0.00  0.00    -0.096 C 
ATOM     25  H   UNL     1     -12.185  14.738  13.150  0.00  0.00    -0.082 HD
ATOM     26  C   UNL     1     -12.274  12.746  13.933  0.00  0.00    -0.064 C 
ATOM     27  C   UNL     1     -12.042  12.057  12.560  0.00  0.00    +0.066 C 
ENDBRANCH  19  20
ENDBRANCH  18  19
ENDBRANCH  14  15
ENDBRANCH  12  13
TORSDOF 6
ENDMDL
MODEL 4
REMARK VINA RESULT:      -7.6      9.042     13.856
REMARK  Name = C:\Users\Docking\Desktop\test protocol\1iep_ligandH.pdb
REMARK  8 active torsions:
REMARK  status: ('A' for Active; 'I' for Inactive)
REMARK    1  A    between atoms: _5  and  _11
REMARK    2  A    between atoms: _19  and  _21
REMARK    3  A    between atoms: _22  and  _66
REMARK    4  A    between atoms: _27  and  _30
REMARK    5  A    between atoms: _32  and  _33
REMARK    6  A    between atoms: _38  and  _43
REMARK    7  A    between atoms: _43  and  _46
REMARK    8  A    between atoms: _53  and  _55
REMARK                            x       y       z     vdW  Elec       q    Type
REMARK                         _______ _______ _______ _____ _____    ______ ____
ROOT
ATOM     10  C   UNL     1      -6.842  14.969   3.441  0.00  0.00    +0.038 A 
ATOM     11  C   UNL     1      -7.684  14.307   4.370  0.00  0.00    +0.047 A 
ATOM     12  C   UNL     1      -8.294  15.027   5.478  0.00  0.00    +0.035 A 
ATOM     32  C   UNL     1      -8.026  16.421   5.608  0.00  0.00    +0.024 A 
ATOM     33  C   UNL     1      -7.172  17.109   4.673  0.00  0.00    +0.007 A 
ATOM     34  C   UNL     1      -6.566  16.404   3.579  0.00  0.00    -0.029 A 
ATOM     35  C   UNL     1      -5.653  17.192   2.611  0.00  0.00    +0.045 C 
ENDROOT
BRANCH  10   9
ATOM      4  C   UNL     1      -3.449  12.099   1.629  0.00  0.00    +0.077 A 
ATOM      5  C   UNL     1      -2.713  12.093   2.860  0.00  0.00    +0.048 A 
ATOM      6  C   UNL     1      -3.238  12.848   3.934  0.00  0.00    +0.116 A 
ATOM      7  N   UNL     1      -4.412  13.551   3.776  0.00  0.00    -0.223 NA
ATOM      8  C   UNL     1      -5.096  13.536   2.574  0.00  0.00    +0.220 A 
ATOM      9  N   UNL     1      -6.283  14.230   2.396  0.00  0.00    -0.283 N 
ATOM     36  H   UNL     1      -6.754  14.200   1.492  0.00  0.00    +0.155 HD
ATOM     37  N   UNL     1      -4.615  12.825   1.534  0.00  0.00    -0.214 NA
BRANCH   4   3
ATOM      1  C   UNL     1      -3.497  10.211  -1.797  0.00  0.00    +0.020 A 
ATOM      2  C   UNL     1      -3.959  10.934  -0.634  0.00  0.00    +0.013 A 
ATOM      3  C   UNL     1      -3.024  11.348   0.405  0.00  0.00    +0.019 A 
ATOM     38  C   UNL     1      -1.619  11.013   0.236  0.00  0.00    +0.120 A 
ATOM     39  N   UNL     1      -1.203  10.314  -0.893  0.00  0.00    -0.263 NA
ATOM     40  C   UNL     1      -2.093   9.909  -1.899  0.00  0.00    +0.111 A 
ENDBRANCH   4   3
ENDBRANCH  10   9
BRANCH  12  13
ATOM     13  N   UNL     1      -9.151  14.406   6.458  0.00  0.00    -0.281 N 
ATOM     14  C   UNL     1     -10.534  14.441   6.523  0.00  0.00    +0.248 C 
ATOM     30  O   UNL     1     -11.238  15.194   5.867  0.00  0.00    -0.270 OA
ATOM     31  H   UNL     1      -8.681  13.877   7.192  0.00  0.00    +0.155 HD
BRANCH  14  15
ATOM     15  C   UNL     1     -11.236  13.517   7.465  0.00  0.00    +0.037 A 
ATOM     16  C   UNL     1     -12.609  13.072   7.211  0.00  0.00    +0.013 A 
ATOM     17  C   UNL     1     -13.269  12.194   8.144  0.00  0.00    +0.005 A 
ATOM     18  C   UNL     1     -12.555  11.753   9.340  0.00  0.00    -0.033 A 
ATOM     28  C   UNL     1     -11.192  12.205   9.565  0.00  0.00    +0.005 A 
ATOM     29  C   UNL     1     -10.542  13.067   8.653  0.00  0.00    +0.013 A 
BRANCH  18  19
ATOM     19  C   UNL     1     -13.189  10.833  10.401  0.00  0.00    +0.119 C 
BRANCH  19  20
ATOM     20  N   UNL     1     -12.281   9.883  11.112  0.00  0.00    -0.302 NA
ATOM     21  C   UNL     1     -12.348   8.473  10.520  0.00  0.00    +0.066 C 
ATOM     22  C   UNL     1     -11.376   7.498  11.261  0.00  0.00    -0.064 C 
ATOM     23  N   UNL     1     -11.719   7.477  12.752  0.00  0.00    +0.379 N 
ATOM     24  C   UNL     1     -10.844   6.517  13.443  0.00  0.00    -0.096 C 
ATOM     25  H   UNL     1     -12.767   7.112  12.853  0.00  0.00    -0.082 HD
ATOM     26  C   UNL     1     -11.657   8.876  13.348  0.00  0.00    -0.064 C 
ATOM     27  C   UNL     1     -12.605   9.844  12.585  0.00  0.00    +0.066 C 
ENDBRANCH  19  20
ENDBRANCH  18  19
ENDBRANCH  14  15
ENDBRANCH  12  13
TORSDOF 6
ENDMDL
MODEL 5
REMARK VINA RESULT:      -7.5      8.822     14.139
REMARK  Name = C:\Users\Docking\Desktop\test protocol\1iep_ligandH.pdb
REMARK  8 active torsions:
REMARK  status: ('A' for Active; 'I' for Inactive)
REMARK    1  A    between atoms: _5  and  _11
REMARK    2  A    between atoms: _19  and  _21
REMARK    3  A    between atoms: _22  and  _66
REMARK    4  A    between atoms: _27  and  _30
REMARK    5  A    between atoms: _32  and  _33
REMARK    6  A    between atoms: _38  and  _43
REMARK    7  A    between atoms: _43  and  _46
REMARK    8  A    between atoms: _53  and  _55
REMARK                            x       y       z     vdW  Elec       q    Type
REMARK                         _______ _______ _______ _____ _____    ______ ____
ROOT
ATOM     10  C   UNL     1      -5.419  15.517   3.959  0.00  0.00    +0.038 A 
ATOM     11  C   UNL     1      -6.376  14.989   4.862  0.00  0.00    +0.047 A 
ATOM     12  C   UNL     1      -7.666  15.633   5.054  0.00  0.00    +0.035 A 
ATOM     32  C   UNL     1      -7.950  16.813   4.307  0.00  0.00    +0.024 A 
ATOM     33  C   UNL     1      -6.988  17.365   3.385  0.00  0.00    +0.007 A 
ATOM     34  C   UNL     1      -5.713  16.735   3.194  0.00  0.00    -0.029 A 
ATOM     35  C   UNL     1      -4.718  17.374   2.197  0.00  0.00    +0.045 C 
ENDROOT
BRANCH  10   9
ATOM      4  C   UNL     1      -2.804  11.632   2.910  0.00  0.00    +0.077 A 
ATOM      5  C   UNL     1      -3.973  10.841   2.656  0.00  0.00    +0.048 A 
ATOM      6  C   UNL     1      -5.229  11.469   2.813  0.00  0.00    +0.116 A 
ATOM      7  N   UNL     1      -5.298  12.791   3.196  0.00  0.00    -0.223 NA
ATOM      8  C   UNL     1      -4.151  13.525   3.435  0.00  0.00    +0.220 A 
ATOM      9  N   UNL     1      -4.197  14.858   3.814  0.00  0.00    -0.283 N 
ATOM     36  H   UNL     1      -3.328  15.363   3.988  0.00  0.00    +0.155 HD
ATOM     37  N   UNL     1      -2.940  12.947   3.293  0.00  0.00    -0.214 NA
BRANCH   4   3
ATOM      1  C   UNL     1       1.098  11.366   2.943  0.00  0.00    +0.020 A 
ATOM      2  C   UNL     1      -0.230  11.918   3.081  0.00  0.00    +0.013 A 
ATOM      3  C   UNL     1      -1.406  11.111   2.784  0.00  0.00    +0.019 A 
ATOM     38  C   UNL     1      -1.202   9.738   2.346  0.00  0.00    +0.120 A 
ATOM     39  N   UNL     1       0.089   9.234   2.221  0.00  0.00    -0.263 NA
ATOM     40  C   UNL     1       1.228  10.002   2.503  0.00  0.00    +0.111 A 
ENDBRANCH   4   3
ENDBRANCH  10   9
BRANCH  12  13
ATOM     13  N   UNL     1      -8.674  15.147   5.963  0.00  0.00    -0.281 N 
ATOM     14  C   UNL     1     -10.013  14.907   5.701  0.00  0.00    +0.248 C 
ATOM     30  O   UNL     1     -10.598  15.279   4.695  0.00  0.00    -0.270 OA
ATOM     31  H   UNL     1      -8.363  14.957   6.916  0.00  0.00    +0.155 HD
BRANCH  14  15
ATOM     15  C   UNL     1     -10.823  14.158   6.710  0.00  0.00    +0.037 A 
ATOM     16  C   UNL     1     -12.237  13.853   6.474  0.00  0.00    +0.013 A 
ATOM     17  C   UNL     1     -13.000  13.144   7.471  0.00  0.00    +0.005 A 
ATOM     18  C   UNL     1     -12.349  12.734   8.713  0.00  0.00    -0.033 A 
ATOM     28  C   UNL     1     -10.944  13.045   8.918  0.00  0.00    +0.005 A 
ATOM     29  C   UNL     1     -10.194  13.740   7.944  0.00  0.00    +0.013 A 
BRANCH  18  19
ATOM     19  C   UNL     1     -13.091  11.992   9.840  0.00  0.00    +0.119 C 
BRANCH  19  20
ATOM     20  N   UNL     1     -12.267  11.455  10.963  0.00  0.00    -0.302 NA
ATOM     21  C   UNL     1     -12.601   9.993  11.273  0.00  0.00    +0.066 C 
ATOM     22  C   UNL     1     -11.714   9.440  12.435  0.00  0.00    -0.064 C 
ATOM     23  N   UNL     1     -11.902  10.313  13.677  0.00  0.00    +0.379 N 
ATOM     24  C   UNL     1     -11.114   9.762  14.788  0.00  0.00    -0.096 C 
ATOM     25  H   UNL     1     -12.978  10.261  13.966  0.00  0.00    -0.082 HD
ATOM     26  C   UNL     1     -11.574  11.769  13.377  0.00  0.00    -0.064 C 
ATOM     27  C   UNL     1     -12.441  12.300  12.201  0.00  0.00    +0.066 C 
ENDBRANCH  19  20
ENDBRANCH  18  19
ENDBRANCH  14  15
ENDBRANCH  12  13
TORSDOF 6
ENDMDL
