MODEL 1
REMARK VINA RESULT:      -9.7      0.000      0.000
REMARK  Name = C:\Users\Docking\Desktop\test protocol\1iep_ligandH.pdb
REMARK  8 active torsions:
REMARK  status: ('A' for Active; 'I' for Inactive)
REMARK    1  A    between atoms: _5  and  _11
REMARK    2  A    between atoms: _19  and  _21
REMARK    3  A    between atoms: _22  and  _66
REMARK    4  A    between atoms: _27  and  _30
REMARK    5  A    between atoms: _32  and  _33
REMARK    6  A    between atoms: _38  and  _43
REMARK    7  A    between atoms: _43  and  _46
REMARK    8  A    between atoms: _53  and  _55
REMARK                            x       y       z     vdW  Elec       q    Type
REMARK                         _______ _______ _______ _____ _____    ______ ____
ROOT
ATOM     10  C   UNL     1      18.525  17.952  12.014  0.00  0.00    +0.038 A 
ATOM     11  C   UNL     1      19.064  19.228  12.318  0.00  0.00    +0.047 A 
ATOM     12  C   UNL     1      18.583  19.996  13.456  0.00  0.00    +0.035 A 
ATOM     32  C   UNL     1      17.555  19.432  14.266  0.00  0.00    +0.024 A 
ATOM     33  C   UNL     1      16.996  18.136  13.971  0.00  0.00    +0.007 A 
ATOM     34  C   UNL     1      17.464  17.375  12.849  0.00  0.00    -0.029 A 
ATOM     35  C   UNL     1      16.823  15.994  12.576  0.00  0.00    +0.045 C 
ENDROOT
BRANCH  10   9
ATOM      4  C   UNL     1      22.108  15.886   9.578  0.00  0.00    +0.077 A 
ATOM      5  C   UNL     1      23.073  16.243  10.578  0.00  0.00    +0.048 A 
ATOM      6  C   UNL     1      22.607  16.964  11.700  0.00  0.00    +0.116 A 
ATOM      7  N   UNL     1      21.274  17.298  11.805  0.00  0.00    -0.223 NA
ATOM      8  C   UNL     1      20.371  16.940  10.821  0.00  0.00    +0.220 A 
ATOM      9  N   UNL     1      19.024  17.258  10.910  0.00  0.00    -0.283 N 
ATOM     36  H   UNL     1      18.391  16.982  10.160  0.00  0.00    +0.155 HD
ATOM     37  N   UNL     1      20.790  16.252   9.739  0.00  0.00    -0.214 NA
BRANCH   4   3
ATOM      1  C   UNL     1      21.834  14.053   6.133  0.00  0.00    +0.020 A 
ATOM      2  C   UNL     1      21.457  14.793   7.315  0.00  0.00    +0.013 A 
ATOM      3  C   UNL     1      22.445  15.122   8.336  0.00  0.00    +0.019 A 
ATOM     38  C   UNL     1      23.817  14.683   8.128  0.00  0.00    +0.120 A 
ATOM     39  N   UNL     1      24.150  13.970   6.980  0.00  0.00    -0.263 NA
ATOM     40  C   UNL     1      23.208  13.647   5.993  0.00  0.00    +0.111 A 
ENDBRANCH   4   3
ENDBRANCH  10   9
BRANCH  12  13
ATOM     13  N   UNL     1      19.086  21.301  13.809  0.00  0.00    -0.281 N 
ATOM     14  C   UNL     1      18.562  22.537  13.466  0.00  0.00    +0.248 C 
ATOM     30  O   UNL     1      17.697  22.710  12.620  0.00  0.00    -0.270 OA
ATOM     31  H   UNL     1      19.931  21.315  14.380  0.00  0.00    +0.155 HD
BRANCH  14  15
ATOM     15  C   UNL     1      19.085  23.758  14.151  0.00  0.00    +0.037 A 
ATOM     16  C   UNL     1      19.506  24.935  13.388  0.00  0.00    +0.013 A 
ATOM     17  C   UNL     1      20.023  26.094  14.072  0.00  0.00    +0.005 A 
ATOM     18  C   UNL     1      20.120  26.080  15.530  0.00  0.00    -0.033 A 
ATOM     28  C   UNL     1      19.689  24.901  16.262  0.00  0.00    +0.005 A 
ATOM     29  C   UNL     1      19.183  23.763  15.595  0.00  0.00    +0.013 A 
BRANCH  18  19
ATOM     19  C   UNL     1      20.678  27.264  16.342  0.00  0.00    +0.119 C 
BRANCH  19  20
ATOM     20  N   UNL     1      22.136  27.242  16.667  0.00  0.00    -0.302 NA
ATOM     21  C   UNL     1      22.996  26.959  15.433  0.00  0.00    +0.066 C 
ATOM     22  C   UNL     1      24.519  26.963  15.787  0.00  0.00    -0.064 C 
ATOM     23  N   UNL     1      24.787  25.930  16.882  0.00  0.00    +0.379 N 
ATOM     24  C   UNL     1      26.227  25.889  17.177  0.00  0.00    -0.096 C 
ATOM     25  H   UNL     1      24.495  24.930  16.483  0.00  0.00    -0.082 HD
ATOM     26  C   UNL     1      23.934  26.202  18.113  0.00  0.00    -0.064 C 
ATOM     27  C   UNL     1      22.424  26.226  17.744  0.00  0.00    +0.066 C 
ENDBRANCH  19  20
ENDBRANCH  18  19
ENDBRANCH  14  15
ENDBRANCH  12  13
TORSDOF 6
ENDMDL
MODEL 2
REMARK VINA RESULT:      -9.7      5.632      7.823
REMARK  Name = C:\Users\Docking\Desktop\test protocol\1iep_ligandH.pdb
REMARK  8 active torsions:
REMARK  status: ('A' for Active; 'I' for Inactive)
REMARK    1  A    between atoms: _5  and  _11
REMARK    2  A    between atoms: _19  and  _21
REMARK    3  A    between atoms: _22  and  _66
REMARK    4  A    between atoms: _27  and  _30
REMARK    5  A    between atoms: _32  and  _33
REMARK    6  A    between atoms: _38  and  _43
REMARK    7  A    between atoms: _43  and  _46
REMARK    8  A    between atoms: _53  and  _55
REMARK                            x       y       z     vdW  Elec       q    Type
REMARK                         _______ _______ _______ _____ _____    ______ ____
ROOT
ATOM     10  C   UNL     1      20.268  20.533  13.509  0.00  0.00    +0.038 A 
ATOM     11  C   UNL     1      19.018  20.792  14.127  0.00  0.00    +0.047 A 
ATOM     12  C   UNL     1      18.457  22.134  14.156  0.00  0.00    +0.035 A 
ATOM     32  C   UNL     1      19.196  23.188  13.544  0.00  0.00    +0.024 A 
ATOM     33  C   UNL     1      20.469  22.943  12.913  0.00  0.00    +0.007 A 
ATOM     34  C   UNL     1      21.028  21.622  12.884  0.00  0.00    -0.029 A 
ATOM     35  C   UNL     1      22.400  21.418  12.199  0.00  0.00    +0.045 C 
ENDROOT
BRANCH  10   9
ATOM      4  C   UNL     1      20.785  16.204  11.501  0.00  0.00    +0.077 A 
ATOM      5  C   UNL     1      19.986  16.570  10.367  0.00  0.00    +0.048 A 
ATOM      6  C   UNL     1      19.455  17.879  10.342  0.00  0.00    +0.116 A 
ATOM      7  N   UNL     1      19.711  18.749  11.380  0.00  0.00    -0.223 NA
ATOM      8  C   UNL     1      20.483  18.364  12.460  0.00  0.00    +0.220 A 
ATOM      9  N   UNL     1      20.760  19.225  13.510  0.00  0.00    -0.283 N 
ATOM     36  H   UNL     1      21.328  18.901  14.292  0.00  0.00    +0.155 HD
ATOM     37  N   UNL     1      21.001  17.119  12.508  0.00  0.00    -0.214 NA
BRANCH   4   3
ATOM      1  C   UNL     1      21.489  12.525  12.627  0.00  0.00    +0.020 A 
ATOM      2  C   UNL     1      20.837  13.807  12.497  0.00  0.00    +0.013 A 
ATOM      3  C   UNL     1      21.418  14.858  11.671  0.00  0.00    +0.019 A 
ATOM     38  C   UNL     1      22.669  14.576  10.983  0.00  0.00    +0.120 A 
ATOM     39  N   UNL     1      23.275  13.331  11.128  0.00  0.00    -0.263 NA
ATOM     40  C   UNL     1      22.726  12.313  11.922  0.00  0.00    +0.111 A 
ENDBRANCH   4   3
ENDBRANCH  10   9
BRANCH  12  13
ATOM     13  N   UNL     1      17.196  22.459  14.775  0.00  0.00    -0.281 N 
ATOM     14  C   UNL     1      15.924  22.114  14.349  0.00  0.00    +0.248 C 
ATOM     30  O   UNL     1      15.666  21.651  13.247  0.00  0.00    -0.270 OA
ATOM     31  H   UNL     1      17.248  23.011  15.631  0.00  0.00    +0.155 HD
BRANCH  14  15
ATOM     15  C   UNL     1      14.770  22.326  15.274  0.00  0.00    +0.037 A 
ATOM     16  C   UNL     1      14.958  22.921  16.600  0.00  0.00    +0.013 A 
ATOM     17  C   UNL     1      13.830  23.100  17.479  0.00  0.00    +0.005 A 
ATOM     18  C   UNL     1      12.503  22.683  17.035  0.00  0.00    -0.033 A 
ATOM     28  C   UNL     1      12.343  22.100  15.713  0.00  0.00    +0.005 A 
ATOM     29  C   UNL     1      13.447  21.923  14.848  0.00  0.00    +0.013 A 
BRANCH  18  19
ATOM     19  C   UNL     1      11.246  22.816  17.915  0.00  0.00    +0.119 C 
BRANCH  19  20
ATOM     20  N   UNL     1      10.839  24.194  18.322  0.00  0.00    -0.302 NA
ATOM     21  C   UNL     1      11.264  24.519  19.757  0.00  0.00    +0.066 C 
ATOM     22  C   UNL     1      10.850  25.972  20.158  0.00  0.00    -0.064 C 
ATOM     23  N   UNL     1       9.338  26.133  19.992  0.00  0.00    +0.379 N 
ATOM     24  C   UNL     1       8.938  27.480  20.423  0.00  0.00    -0.096 C 
ATOM     25  H   UNL     1       8.843  25.399  20.670  0.00  0.00    -0.082 HD
ATOM     26  C   UNL     1       8.906  25.810  18.568  0.00  0.00    -0.064 C 
ATOM     27  C   UNL     1       9.348  24.374  18.170  0.00  0.00    +0.066 C 
ENDBRANCH  19  20
ENDBRANCH  18  19
ENDBRANCH  14  15
ENDBRANCH  12  13
TORSDOF 6
ENDMDL
MODEL 3
REMARK VINA RESULT:      -9.5      3.130      5.456
REMARK  Name = C:\Users\Docking\Desktop\test protocol\1iep_ligandH.pdb
REMARK  8 active torsions:
REMARK  status: ('A' for Active; 'I' for Inactive)
REMARK    1  A    between atoms: _5  and  _11
REMARK    2  A    between atoms: _19  and  _21
REMARK    3  A    between atoms: _22  and  _66
REMARK    4  A    between atoms: _27  and  _30
REMARK    5  A    between atoms: _32  and  _33
REMARK    6  A    between atoms: _38  and  _43
REMARK    7  A    between atoms: _43  and  _46
REMARK    8  A    between atoms: _53  and  _55
REMARK                            x       y       z     vdW  Elec       q    Type
REMARK                         _______ _______ _______ _____ _____    ______ ____
ROOT
ATOM     10  C   UNL     1      19.684  17.213  12.044  0.00  0.00    +0.038 A 
ATOM     11  C   UNL     1      19.722  18.514  12.606  0.00  0.00    +0.047 A 
ATOM     12  C   UNL     1      19.650  19.700  11.767  0.00  0.00    +0.035 A 
ATOM     32  C   UNL     1      19.537  19.523  10.357  0.00  0.00    +0.024 A 
ATOM     33  C   UNL     1      19.498  18.208   9.768  0.00  0.00    +0.007 A 
ATOM     34  C   UNL     1      19.571  17.035  10.591  0.00  0.00    -0.029 A 
ATOM     35  C   UNL     1      19.531  15.650   9.904  0.00  0.00    +0.045 C 
ENDROOT
BRANCH  10   9
ATOM      4  C   UNL     1      17.671  13.992  14.978  0.00  0.00    +0.077 A 
ATOM      5  C   UNL     1      16.369  14.573  14.820  0.00  0.00    +0.048 A 
ATOM      6  C   UNL     1      16.262  15.704  13.980  0.00  0.00    +0.116 A 
ATOM      7  N   UNL     1      17.379  16.208  13.350  0.00  0.00    -0.223 NA
ATOM      8  C   UNL     1      18.621  15.625  13.526  0.00  0.00    +0.220 A 
ATOM      9  N   UNL     1      19.757  16.110  12.897  0.00  0.00    -0.283 N 
ATOM     36  H   UNL     1      20.655  15.656  13.058  0.00  0.00    +0.155 HD
ATOM     37  N   UNL     1      18.750  14.545  14.324  0.00  0.00    -0.214 NA
BRANCH   4   3
ATOM      1  C   UNL     1      19.342  11.497  17.486  0.00  0.00    +0.020 A 
ATOM      2  C   UNL     1      19.123  12.678  16.682  0.00  0.00    +0.013 A 
ATOM      3  C   UNL     1      17.946  12.792  15.830  0.00  0.00    +0.019 A 
ATOM     38  C   UNL     1      17.001  11.686  15.816  0.00  0.00    +0.120 A 
ATOM     39  N   UNL     1      17.238  10.561  16.599  0.00  0.00    -0.263 NA
ATOM     40  C   UNL     1      18.368  10.439  17.421  0.00  0.00    +0.111 A 
ENDBRANCH   4   3
ENDBRANCH  10   9
BRANCH  12  13
ATOM     13  N   UNL     1      19.692  21.046  12.281  0.00  0.00    -0.281 N 
ATOM     14  C   UNL     1      18.639  21.809  12.758  0.00  0.00    +0.248 C 
ATOM     30  O   UNL     1      17.459  21.524  12.615  0.00  0.00    -0.270 OA
ATOM     31  H   UNL     1      20.610  21.491  12.295  0.00  0.00    +0.155 HD
BRANCH  14  15
ATOM     15  C   UNL     1      18.939  23.080  13.486  0.00  0.00    +0.037 A 
ATOM     16  C   UNL     1      18.619  23.235  14.907  0.00  0.00    +0.013 A 
ATOM     17  C   UNL     1      18.903  24.477  15.581  0.00  0.00    +0.005 A 
ATOM     18  C   UNL     1      19.513  25.574  14.833  0.00  0.00    -0.033 A 
ATOM     28  C   UNL     1      19.824  25.392  13.425  0.00  0.00    +0.005 A 
ATOM     29  C   UNL     1      19.546  24.176  12.761  0.00  0.00    +0.013 A 
BRANCH  18  19
ATOM     19  C   UNL     1      19.831  26.942  15.466  0.00  0.00    +0.119 C 
BRANCH  19  20
ATOM     20  N   UNL     1      21.184  27.115  16.075  0.00  0.00    -0.302 NA
ATOM     21  C   UNL     1      22.306  26.870  15.061  0.00  0.00    +0.066 C 
ATOM     22  C   UNL     1      23.713  27.078  15.709  0.00  0.00    -0.064 C 
ATOM     23  N   UNL     1      23.859  26.147  16.914  0.00  0.00    +0.379 N 
ATOM     24  C   UNL     1      25.203  26.298  17.490  0.00  0.00    -0.096 C 
ATOM     25  H   UNL     1      23.765  25.099  16.545  0.00  0.00    -0.082 HD
ATOM     26  C   UNL     1      22.746  26.381  17.925  0.00  0.00    -0.064 C 
ATOM     27  C   UNL     1      21.351  26.202  17.264  0.00  0.00    +0.066 C 
ENDBRANCH  19  20
ENDBRANCH  18  19
ENDBRANCH  14  15
ENDBRANCH  12  13
TORSDOF 6
ENDMDL
MODEL 4
REMARK VINA RESULT:      -9.5      3.063      6.273
REMARK  Name = C:\Users\Docking\Desktop\test protocol\1iep_ligandH.pdb
REMARK  8 active torsions:
REMARK  status: ('A' for Active; 'I' for Inactive)
REMARK    1  A    between atoms: _5  and  _11
REMARK    2  A    between atoms: _19  and  _21
REMARK    3  A    between atoms: _22  and  _66
REMARK    4  A    between atoms: _27  and  _30
REMARK    5  A    between atoms: _32  and  _33
REMARK    6  A    between atoms: _38  and  _43
REMARK    7  A    between atoms: _43  and  _46
REMARK    8  A    between atoms: _53  and  _55
REMARK                            x       y       z     vdW  Elec       q    Type
REMARK                         _______ _______ _______ _____ _____    ______ ____
ROOT
ATOM     10  C   UNL     1      18.364  23.084  15.363  0.00  0.00    +0.038 A 
ATOM     11  C   UNL     1      19.612  23.749  15.473  0.00  0.00    +0.047 A 
ATOM     12  C   UNL     1      19.693  25.124  15.942  0.00  0.00    +0.035 A 
ATOM     32  C   UNL     1      18.482  25.791  16.292  0.00  0.00    +0.024 A 
ATOM     33  C   UNL     1      17.205  25.130  16.185  0.00  0.00    +0.007 A 
ATOM     34  C   UNL     1      17.119  23.775  15.721  0.00  0.00    -0.029 A 
ATOM     35  C   UNL     1      15.722  23.118  15.621  0.00  0.00    +0.045 C 
ENDROOT
BRANCH  10   9
ATOM      4  C   UNL     1      19.047  19.770  11.959  0.00  0.00    +0.077 A 
ATOM      5  C   UNL     1      19.451  20.756  10.998  0.00  0.00    +0.048 A 
ATOM      6  C   UNL     1      19.462  22.105  11.417  0.00  0.00    +0.116 A 
ATOM      7  N   UNL     1      19.096  22.432  12.704  0.00  0.00    -0.223 NA
ATOM      8  C   UNL     1      18.709  21.458  13.606  0.00  0.00    +0.220 A 
ATOM      9  N   UNL     1      18.344  21.764  14.908  0.00  0.00    -0.283 N 
ATOM     36  H   UNL     1      18.059  21.016  15.540  0.00  0.00    +0.155 HD
ATOM     37  N   UNL     1      18.689  20.162  13.229  0.00  0.00    -0.214 NA
BRANCH   4   3
ATOM      1  C   UNL     1      18.114  15.974  12.089  0.00  0.00    +0.020 A 
ATOM      2  C   UNL     1      18.136  17.382  12.411  0.00  0.00    +0.013 A 
ATOM      3  C   UNL     1      18.986  18.303  11.667  0.00  0.00    +0.019 A 
ATOM     38  C   UNL     1      19.808  17.763  10.595  0.00  0.00    +0.120 A 
ATOM     39  N   UNL     1      19.767  16.402  10.308  0.00  0.00    -0.263 NA
ATOM     40  C   UNL     1      18.954  15.506  11.018  0.00  0.00    +0.111 A 
ENDBRANCH   4   3
ENDBRANCH  10   9
BRANCH  12  13
ATOM     13  N   UNL     1      20.930  25.853  16.066  0.00  0.00    -0.281 N 
ATOM     14  C   UNL     1      21.612  26.181  17.227  0.00  0.00    +0.248 C 
ATOM     30  O   UNL     1      21.148  26.081  18.353  0.00  0.00    -0.270 OA
ATOM     31  H   UNL     1      21.355  26.166  15.193  0.00  0.00    +0.155 HD
BRANCH  14  15
ATOM     15  C   UNL     1      23.006  26.711  17.120  0.00  0.00    +0.037 A 
ATOM     16  C   UNL     1      23.640  26.923  15.816  0.00  0.00    +0.013 A 
ATOM     17  C   UNL     1      24.992  27.419  15.742  0.00  0.00    +0.005 A 
ATOM     18  C   UNL     1      25.718  27.707  16.977  0.00  0.00    -0.033 A 
ATOM     28  C   UNL     1      25.063  27.492  18.256  0.00  0.00    +0.005 A 
ATOM     29  C   UNL     1      23.738  27.005  18.333  0.00  0.00    +0.013 A 
BRANCH  18  19
ATOM     19  C   UNL     1      27.170  28.219  16.993  0.00  0.00    +0.119 C 
BRANCH  19  20
ATOM     20  N   UNL     1      28.066  27.769  15.886  0.00  0.00    -0.302 NA
ATOM     21  C   UNL     1      29.026  26.664  16.336  0.00  0.00    +0.066 C 
ATOM     22  C   UNL     1      29.940  26.189  15.160  0.00  0.00    -0.064 C 
ATOM     23  N   UNL     1      30.714  27.386  14.604  0.00  0.00    +0.379 N 
ATOM     24  C   UNL     1      31.618  26.933  13.537  0.00  0.00    -0.096 C 
ATOM     25  H   UNL     1      31.343  27.795  15.429  0.00  0.00    -0.082 HD
ATOM     26  C   UNL     1      29.767  28.490  14.156  0.00  0.00    -0.064 C 
ATOM     27  C   UNL     1      28.843  28.934  15.325  0.00  0.00    +0.066 C 
ENDBRANCH  19  20
ENDBRANCH  18  19
ENDBRANCH  14  15
ENDBRANCH  12  13
TORSDOF 6
ENDMDL
MODEL 5
REMARK VINA RESULT:      -9.4      4.281     11.646
REMARK  Name = C:\Users\Docking\Desktop\test protocol\1iep_ligandH.pdb
REMARK  8 active torsions:
REMARK  status: ('A' for Active; 'I' for Inactive)
REMARK    1  A    between atoms: _5  and  _11
REMARK    2  A    between atoms: _19  and  _21
REMARK    3  A    between atoms: _22  and  _66
REMARK    4  A    between atoms: _27  and  _30
REMARK    5  A    between atoms: _32  and  _33
REMARK    6  A    between atoms: _38  and  _43
REMARK    7  A    between atoms: _43  and  _46
REMARK    8  A    between atoms: _53  and  _55
REMARK                            x       y       z     vdW  Elec       q    Type
REMARK                         _______ _______ _______ _____ _____    ______ ____
ROOT
ATOM     10  C   UNL     1      19.476  22.076  14.048  0.00  0.00    +0.038 A 
ATOM     11  C   UNL     1      19.869  20.722  13.888  0.00  0.00    +0.047 A 
ATOM     12  C   UNL     1      20.912  20.348  12.946  0.00  0.00    +0.035 A 
ATOM     32  C   UNL     1      21.537  21.378  12.185  0.00  0.00    +0.024 A 
ATOM     33  C   UNL     1      21.150  22.759  12.335  0.00  0.00    +0.007 A 
ATOM     34  C   UNL     1      20.120  23.134  13.260  0.00  0.00    -0.029 A 
ATOM     35  C   UNL     1      19.741  24.629  13.374  0.00  0.00    +0.045 C 
ENDROOT
BRANCH  10   9
ATOM      4  C   UNL     1      14.860  22.319  15.340  0.00  0.00    +0.077 A 
ATOM      5  C   UNL     1      14.417  21.825  14.068  0.00  0.00    +0.048 A 
ATOM      6  C   UNL     1      15.408  21.527  13.106  0.00  0.00    +0.116 A 
ATOM      7  N   UNL     1      16.741  21.713  13.405  0.00  0.00    -0.223 NA
ATOM      8  C   UNL     1      17.134  22.192  14.641  0.00  0.00    +0.220 A 
ATOM      9  N   UNL     1      18.469  22.379  14.966  0.00  0.00    -0.283 N 
ATOM     36  H   UNL     1      18.718  22.742  15.886  0.00  0.00    +0.155 HD
ATOM     37  N   UNL     1      16.207  22.485  15.576  0.00  0.00    -0.214 NA
BRANCH   4   3
ATOM      1  C   UNL     1      11.640  22.843  17.498  0.00  0.00    +0.020 A 
ATOM      2  C   UNL     1      12.491  22.483  16.387  0.00  0.00    +0.013 A 
ATOM      3  C   UNL     1      13.933  22.675  16.460  0.00  0.00    +0.019 A 
ATOM     38  C   UNL     1      14.488  23.238  17.682  0.00  0.00    +0.120 A 
ATOM     39  N   UNL     1      13.644  23.577  18.735  0.00  0.00    -0.263 NA
ATOM     40  C   UNL     1      12.254  23.398  18.675  0.00  0.00    +0.111 A 
ENDBRANCH   4   3
ENDBRANCH  10   9
BRANCH  12  13
ATOM     13  N   UNL     1      21.347  18.989  12.735  0.00  0.00    -0.281 N 
ATOM     14  C   UNL     1      20.750  18.016  11.949  0.00  0.00    +0.248 C 
ATOM     30  O   UNL     1      19.627  18.104  11.475  0.00  0.00    -0.270 OA
ATOM     31  H   UNL     1      22.198  18.711  13.224  0.00  0.00    +0.155 HD
BRANCH  14  15
ATOM     15  C   UNL     1      21.504  16.758  11.661  0.00  0.00    +0.037 A 
ATOM     16  C   UNL     1      22.934  16.785  11.342  0.00  0.00    +0.013 A 
ATOM     17  C   UNL     1      23.633  15.559  11.051  0.00  0.00    +0.005 A 
ATOM     18  C   UNL     1      22.903  14.294  11.080  0.00  0.00    -0.033 A 
ATOM     28  C   UNL     1      21.486  14.296  11.404  0.00  0.00    +0.005 A 
ATOM     29  C   UNL     1      20.797  15.496  11.689  0.00  0.00    +0.013 A 
BRANCH  18  19
ATOM     19  C   UNL     1      23.563  12.940  10.762  0.00  0.00    +0.119 C 
BRANCH  19  20
ATOM     20  N   UNL     1      24.313  12.268  11.865  0.00  0.00    -0.302 NA
ATOM     21  C   UNL     1      23.406  11.928  13.052  0.00  0.00    +0.066 C 
ATOM     22  C   UNL     1      24.201  11.207  14.188  0.00  0.00    -0.064 C 
ATOM     23  N   UNL     1      25.366  12.093  14.633  0.00  0.00    +0.379 N 
ATOM     24  C   UNL     1      26.081  11.442  15.741  0.00  0.00    -0.096 C 
ATOM     25  H   UNL     1      24.937  13.046  15.020  0.00  0.00    -0.082 HD
ATOM     26  C   UNL     1      26.271  12.438  13.459  0.00  0.00    -0.064 C 
ATOM     27  C   UNL     1      25.465  13.128  12.324  0.00  0.00    +0.066 C 
ENDBRANCH  19  20
ENDBRANCH  18  19
ENDBRANCH  14  15
ENDBRANCH  12  13
TORSDOF 6
ENDMDL
