MODEL 1
REMARK VINA RESULT:      -9.8      0.000      0.000
REMARK  Name = C:\Users\Docking\Desktop\test protocol\1iep_ligandH.pdb
REMARK  8 active torsions:
REMARK  status: ('A' for Active; 'I' for Inactive)
REMARK    1  A    between atoms: _5  and  _11
REMARK    2  A    between atoms: _19  and  _21
REMARK    3  A    between atoms: _22  and  _66
REMARK    4  A    between atoms: _27  and  _30
REMARK    5  A    between atoms: _32  and  _33
REMARK    6  A    between atoms: _38  and  _43
REMARK    7  A    between atoms: _43  and  _46
REMARK    8  A    between atoms: _53  and  _55
REMARK                            x       y       z     vdW  Elec       q    Type
REMARK                         _______ _______ _______ _____ _____    ______ ____
ROOT
ATOM     10  C   UNL     1      -9.332  22.410 -13.595  0.00  0.00    +0.038 A 
ATOM     11  C   UNL     1     -10.599  22.172 -14.187  0.00  0.00    +0.047 A 
ATOM     12  C   UNL     1     -11.186  20.842 -14.199  0.00  0.00    +0.035 A 
ATOM     32  C   UNL     1     -10.457  19.776 -13.597  0.00  0.00    +0.024 A 
ATOM     33  C   UNL     1      -9.167  19.999 -12.992  0.00  0.00    +0.007 A 
ATOM     34  C   UNL     1      -8.582  21.309 -12.979  0.00  0.00    -0.029 A 
ATOM     35  C   UNL     1      -7.193  21.489 -12.322  0.00  0.00    +0.045 C 
ENDROOT
BRANCH  10   9
ATOM      4  C   UNL     1      -8.643  26.717 -11.593  0.00  0.00    +0.077 A 
ATOM      5  C   UNL     1      -9.398  26.361 -10.427  0.00  0.00    +0.048 A 
ATOM      6  C   UNL     1      -9.954  25.063 -10.385  0.00  0.00    +0.116 A 
ATOM      7  N   UNL     1      -9.761  24.193 -11.436  0.00  0.00    -0.223 NA
ATOM      8  C   UNL     1      -9.028  24.568 -12.547  0.00  0.00    +0.220 A 
ATOM      9  N   UNL     1      -8.815  23.707 -13.612  0.00  0.00    -0.283 N 
ATOM     36  H   UNL     1      -8.275  24.024 -14.417  0.00  0.00    +0.155 HD
ATOM     37  N   UNL     1      -8.489  25.803 -12.612  0.00  0.00    -0.214 NA
BRANCH   4   3
ATOM      1  C   UNL     1      -7.961  30.423 -12.644  0.00  0.00    +0.020 A 
ATOM      2  C   UNL     1      -8.634  29.154 -12.488  0.00  0.00    +0.013 A 
ATOM      3  C   UNL     1      -7.991  28.051 -11.785  0.00  0.00    +0.019 A 
ATOM     38  C   UNL     1      -6.656  28.267 -11.247  0.00  0.00    +0.120 A 
ATOM     39  N   UNL     1      -6.031  29.499 -11.415  0.00  0.00    -0.263 NA
ATOM     40  C   UNL     1      -6.640  30.567 -12.091  0.00  0.00    +0.111 A 
ENDBRANCH   4   3
ENDBRANCH  10   9
BRANCH  12  13
ATOM     13  N   UNL     1     -12.465  20.539 -14.792  0.00  0.00    -0.281 N 
ATOM     14  C   UNL     1     -13.723  20.884 -14.327  0.00  0.00    +0.248 C 
ATOM     30  O   UNL     1     -13.949  21.325 -13.210  0.00  0.00    -0.270 OA
ATOM     31  H   UNL     1     -12.440  20.005 -15.661  0.00  0.00    +0.155 HD
BRANCH  14  15
ATOM     15  C   UNL     1     -14.902  20.699 -15.226  0.00  0.00    +0.037 A 
ATOM     16  C   UNL     1     -16.253  21.066 -14.794  0.00  0.00    +0.013 A 
ATOM     17  C   UNL     1     -17.375  20.862 -15.675  0.00  0.00    +0.005 A 
ATOM     18  C   UNL     1     -17.150  20.288 -17.000  0.00  0.00    -0.033 A 
ATOM     28  C   UNL     1     -15.799  19.938 -17.405  0.00  0.00    +0.005 A 
ATOM     29  C   UNL     1     -14.697  20.136 -16.544  0.00  0.00    +0.013 A 
BRANCH  18  19
ATOM     19  C   UNL     1     -18.291  20.015 -17.998  0.00  0.00    +0.119 C 
BRANCH  19  20
ATOM     20  N   UNL     1     -18.495  18.601 -18.434  0.00  0.00    -0.302 NA
ATOM     21  C   UNL     1     -17.953  18.352 -19.844  0.00  0.00    +0.066 C 
ATOM     22  C   UNL     1     -18.154  16.862 -20.276  0.00  0.00    -0.064 C 
ATOM     23  N   UNL     1     -19.639  16.507 -20.195  0.00  0.00    +0.379 N 
ATOM     24  C   UNL     1     -19.839  15.125 -20.655  0.00  0.00    -0.096 C 
ATOM     25  H   UNL     1     -20.186  17.179 -20.896  0.00  0.00    -0.082 HD
ATOM     26  C   UNL     1     -20.186  16.754 -18.796  0.00  0.00    -0.064 C 
ATOM     27  C   UNL     1     -19.956  18.230 -18.366  0.00  0.00    +0.066 C 
ENDBRANCH  19  20
ENDBRANCH  18  19
ENDBRANCH  14  15
ENDBRANCH  12  13
TORSDOF 6
ENDMDL
MODEL 2
REMARK VINA RESULT:      -9.5      5.340      7.639
REMARK  Name = C:\Users\Docking\Desktop\test protocol\1iep_ligandH.pdb
REMARK  8 active torsions:
REMARK  status: ('A' for Active; 'I' for Inactive)
REMARK    1  A    between atoms: _5  and  _11
REMARK    2  A    between atoms: _19  and  _21
REMARK    3  A    between atoms: _22  and  _66
REMARK    4  A    between atoms: _27  and  _30
REMARK    5  A    between atoms: _32  and  _33
REMARK    6  A    between atoms: _38  and  _43
REMARK    7  A    between atoms: _43  and  _46
REMARK    8  A    between atoms: _53  and  _55
REMARK                            x       y       z     vdW  Elec       q    Type
REMARK                         _______ _______ _______ _____ _____    ______ ____
ROOT
ATOM     10  C   UNL     1     -10.490  25.181 -11.521  0.00  0.00    +0.038 A 
ATOM     11  C   UNL     1     -10.140  23.837 -11.810  0.00  0.00    +0.047 A 
ATOM     12  C   UNL     1     -10.731  23.131 -12.936  0.00  0.00    +0.035 A 
ATOM     32  C   UNL     1     -11.673  23.825 -13.750  0.00  0.00    +0.024 A 
ATOM     33  C   UNL     1     -12.041  25.191 -13.470  0.00  0.00    +0.007 A 
ATOM     34  C   UNL     1     -11.464  25.892 -12.359  0.00  0.00    -0.029 A 
ATOM     35  C   UNL     1     -11.900  27.353 -12.103  0.00  0.00    +0.045 C 
ENDROOT
BRANCH  10   9
ATOM      4  C   UNL     1      -6.767  27.337  -9.393  0.00  0.00    +0.077 A 
ATOM      5  C   UNL     1      -5.934  27.171 -10.549  0.00  0.00    +0.048 A 
ATOM      6  C   UNL     1      -6.500  26.519 -11.668  0.00  0.00    +0.116 A 
ATOM      7  N   UNL     1      -7.802  26.072 -11.623  0.00  0.00    -0.223 NA
ATOM      8  C   UNL     1      -8.578  26.246 -10.492  0.00  0.00    +0.220 A 
ATOM      9  N   UNL     1      -9.892  25.811 -10.427  0.00  0.00    -0.283 N 
ATOM     36  H   UNL     1     -10.429  25.952  -9.572  0.00  0.00    +0.155 HD
ATOM     37  N   UNL     1      -8.060  26.864  -9.409  0.00  0.00    -0.214 NA
BRANCH   4   3
ATOM      1  C   UNL     1      -6.407  28.380  -5.640  0.00  0.00    +0.020 A 
ATOM      2  C   UNL     1      -6.880  27.703  -6.826  0.00  0.00    +0.013 A 
ATOM      3  C   UNL     1      -6.315  28.009  -8.134  0.00  0.00    +0.019 A 
ATOM     38  C   UNL     1      -5.263  29.012  -8.209  0.00  0.00    +0.120 A 
ATOM     39  N   UNL     1      -4.829  29.649  -7.050  0.00  0.00    -0.263 NA
ATOM     40  C   UNL     1      -5.366  29.364  -5.786  0.00  0.00    +0.111 A 
ENDBRANCH   4   3
ENDBRANCH  10   9
BRANCH  12  13
ATOM     13  N   UNL     1     -10.420  21.764 -13.273  0.00  0.00    -0.281 N 
ATOM     14  C   UNL     1     -11.304  20.725 -13.517  0.00  0.00    +0.248 C 
ATOM     30  O   UNL     1     -12.500  20.764 -13.272  0.00  0.00    -0.270 OA
ATOM     31  H   UNL     1      -9.429  21.534 -13.339  0.00  0.00    +0.155 HD
BRANCH  14  15
ATOM     15  C   UNL     1     -10.780  19.455 -14.105  0.00  0.00    +0.037 A 
ATOM     16  C   UNL     1     -11.156  19.031 -15.456  0.00  0.00    +0.013 A 
ATOM     17  C   UNL     1     -10.650  17.793 -15.993  0.00  0.00    +0.005 A 
ATOM     18  C   UNL     1      -9.760  16.970 -15.178  0.00  0.00    -0.033 A 
ATOM     28  C   UNL     1      -9.398  17.417 -13.843  0.00  0.00    +0.005 A 
ATOM     29  C   UNL     1      -9.893  18.629 -13.313  0.00  0.00    +0.013 A 
BRANCH  18  19
ATOM     19  C   UNL     1      -9.189  15.623 -15.661  0.00  0.00    +0.119 C 
BRANCH  19  20
ATOM     20  N   UNL     1      -7.765  15.606 -16.109  0.00  0.00    -0.302 NA
ATOM     21  C   UNL     1      -6.797  15.885 -14.956  0.00  0.00    +0.066 C 
ATOM     22  C   UNL     1      -5.310  15.840 -15.437  0.00  0.00    -0.064 C 
ATOM     23  N   UNL     1      -5.112  16.852 -16.567  0.00  0.00    +0.379 N 
ATOM     24  C   UNL     1      -3.702  16.854 -16.983  0.00  0.00    -0.096 C 
ATOM     25  H   UNL     1      -5.346  17.863 -16.161  0.00  0.00    -0.082 HD
ATOM     26  C   UNL     1      -6.073  16.583 -17.717  0.00  0.00    -0.064 C 
ATOM     27  C   UNL     1      -7.546  16.600 -17.222  0.00  0.00    +0.066 C 
ENDBRANCH  19  20
ENDBRANCH  18  19
ENDBRANCH  14  15
ENDBRANCH  12  13
TORSDOF 6
ENDMDL
MODEL 3
REMARK VINA RESULT:      -9.5      2.365     13.308
REMARK  Name = C:\Users\Docking\Desktop\test protocol\1iep_ligandH.pdb
REMARK  8 active torsions:
REMARK  status: ('A' for Active; 'I' for Inactive)
REMARK    1  A    between atoms: _5  and  _11
REMARK    2  A    between atoms: _19  and  _21
REMARK    3  A    between atoms: _22  and  _66
REMARK    4  A    between atoms: _27  and  _30
REMARK    5  A    between atoms: _32  and  _33
REMARK    6  A    between atoms: _38  and  _43
REMARK    7  A    between atoms: _43  and  _46
REMARK    8  A    between atoms: _53  and  _55
REMARK                            x       y       z     vdW  Elec       q    Type
REMARK                         _______ _______ _______ _____ _____    ______ ____
ROOT
ATOM     10  C   UNL     1     -10.111  21.142 -14.200  0.00  0.00    +0.038 A 
ATOM     11  C   UNL     1      -9.673  22.485 -14.073  0.00  0.00    +0.047 A 
ATOM     12  C   UNL     1      -8.579  22.838 -13.181  0.00  0.00    +0.035 A 
ATOM     32  C   UNL     1      -7.952  21.797 -12.436  0.00  0.00    +0.024 A 
ATOM     33  C   UNL     1      -8.386  20.427 -12.553  0.00  0.00    +0.007 A 
ATOM     34  C   UNL     1      -9.466  20.073 -13.429  0.00  0.00    -0.029 A 
ATOM     35  C   UNL     1      -9.893  18.589 -13.510  0.00  0.00    +0.045 C 
ENDROOT
BRANCH  10   9
ATOM      4  C   UNL     1     -14.791  20.739 -15.191  0.00  0.00    +0.077 A 
ATOM      5  C   UNL     1     -15.165  21.095 -13.852  0.00  0.00    +0.048 A 
ATOM      6  C   UNL     1     -14.123  21.367 -12.938  0.00  0.00    +0.116 A 
ATOM      7  N   UNL     1     -12.808  21.287 -13.342  0.00  0.00    -0.223 NA
ATOM      8  C   UNL     1     -12.481  20.939 -14.640  0.00  0.00    +0.220 A 
ATOM      9  N   UNL     1     -11.166  20.860 -15.071  0.00  0.00    -0.283 N 
ATOM     36  H   UNL     1     -10.967  20.593 -16.035  0.00  0.00    +0.155 HD
ATOM     37  N   UNL     1     -13.458  20.673 -15.532  0.00  0.00    -0.214 NA
BRANCH   4   3
ATOM      1  C   UNL     1     -18.087  20.504 -17.283  0.00  0.00    +0.020 A 
ATOM      2  C   UNL     1     -17.176  20.831 -16.211  0.00  0.00    +0.013 A 
ATOM      3  C   UNL     1     -15.777  20.426 -16.273  0.00  0.00    +0.019 A 
ATOM     38  C   UNL     1     -15.329  19.686 -17.443  0.00  0.00    +0.120 A 
ATOM     39  N   UNL     1     -16.230  19.384 -18.459  0.00  0.00    -0.263 NA
ATOM     40  C   UNL     1     -17.578  19.767 -18.410  0.00  0.00    +0.111 A 
ENDBRANCH   4   3
ENDBRANCH  10   9
BRANCH  12  13
ATOM     13  N   UNL     1      -8.096  24.185 -13.004  0.00  0.00    -0.281 N 
ATOM     14  C   UNL     1      -8.696  25.220 -12.306  0.00  0.00    +0.248 C 
ATOM     30  O   UNL     1      -9.850  25.205 -11.904  0.00  0.00    -0.270 OA
ATOM     31  H   UNL     1      -7.203  24.401 -13.448  0.00  0.00    +0.155 HD
BRANCH  14  15
ATOM     15  C   UNL     1      -7.904  26.456 -12.026  0.00  0.00    +0.037 A 
ATOM     16  C   UNL     1      -8.515  27.785 -12.111  0.00  0.00    +0.013 A 
ATOM     17  C   UNL     1      -7.724  28.963 -11.853  0.00  0.00    +0.005 A 
ATOM     18  C   UNL     1      -6.313  28.815 -11.506  0.00  0.00    -0.033 A 
ATOM     28  C   UNL     1      -5.734  27.485 -11.423  0.00  0.00    +0.005 A 
ATOM     29  C   UNL     1      -6.505  26.329 -11.677  0.00  0.00    +0.013 A 
BRANCH  18  19
ATOM     19  C   UNL     1      -5.389  30.017 -11.235  0.00  0.00    +0.119 C 
BRANCH  19  20
ATOM     20  N   UNL     1      -4.156  30.133 -12.069  0.00  0.00    -0.302 NA
ATOM     21  C   UNL     1      -2.938  30.552 -11.240  0.00  0.00    +0.066 C 
ATOM     22  C   UNL     1      -1.653  30.647 -12.125  0.00  0.00    -0.064 C 
ATOM     23  N   UNL     1      -1.895  31.634 -13.268  0.00  0.00    +0.379 N 
ATOM     24  C   UNL     1      -0.669  31.769 -14.068  0.00  0.00    -0.096 C 
ATOM     25  H   UNL     1      -2.115  32.628 -12.815  0.00  0.00    -0.082 HD
ATOM     26  C   UNL     1      -3.105  31.226 -14.096  0.00  0.00    -0.064 C 
ATOM     27  C   UNL     1      -4.371  31.106 -13.202  0.00  0.00    +0.066 C 
ENDBRANCH  19  20
ENDBRANCH  18  19
ENDBRANCH  14  15
ENDBRANCH  12  13
TORSDOF 6
ENDMDL
MODEL 4
REMARK VINA RESULT:      -9.4      2.178     12.823
REMARK  Name = C:\Users\Docking\Desktop\test protocol\1iep_ligandH.pdb
REMARK  8 active torsions:
REMARK  status: ('A' for Active; 'I' for Inactive)
REMARK    1  A    between atoms: _5  and  _11
REMARK    2  A    between atoms: _19  and  _21
REMARK    3  A    between atoms: _22  and  _66
REMARK    4  A    between atoms: _27  and  _30
REMARK    5  A    between atoms: _32  and  _33
REMARK    6  A    between atoms: _38  and  _43
REMARK    7  A    between atoms: _43  and  _46
REMARK    8  A    between atoms: _53  and  _55
REMARK                            x       y       z     vdW  Elec       q    Type
REMARK                         _______ _______ _______ _____ _____    ______ ____
ROOT
ATOM     10  C   UNL     1     -10.150  21.051 -14.220  0.00  0.00    +0.038 A 
ATOM     11  C   UNL     1      -9.716  22.393 -14.069  0.00  0.00    +0.047 A 
ATOM     12  C   UNL     1      -8.612  22.732 -13.185  0.00  0.00    +0.035 A 
ATOM     32  C   UNL     1      -7.969  21.678 -12.472  0.00  0.00    +0.024 A 
ATOM     33  C   UNL     1      -8.397  20.308 -12.613  0.00  0.00    +0.007 A 
ATOM     34  C   UNL     1      -9.488  19.968 -13.482  0.00  0.00    -0.029 A 
ATOM     35  C   UNL     1      -9.909  18.484 -13.589  0.00  0.00    +0.045 C 
ENDROOT
BRANCH  10   9
ATOM      4  C   UNL     1     -14.842  20.742 -15.182  0.00  0.00    +0.077 A 
ATOM      5  C   UNL     1     -15.201  21.122 -13.846  0.00  0.00    +0.048 A 
ATOM      6  C   UNL     1     -14.148  21.382 -12.940  0.00  0.00    +0.116 A 
ATOM      7  N   UNL     1     -12.838  21.267 -13.350  0.00  0.00    -0.223 NA
ATOM      8  C   UNL     1     -12.526  20.896 -14.646  0.00  0.00    +0.220 A 
ATOM      9  N   UNL     1     -11.215  20.782 -15.082  0.00  0.00    -0.283 N 
ATOM     36  H   UNL     1     -11.027  20.499 -16.044  0.00  0.00    +0.155 HD
ATOM     37  N   UNL     1     -13.514  20.642 -15.529  0.00  0.00    -0.214 NA
BRANCH   4   3
ATOM      1  C   UNL     1     -18.155  20.555 -17.253  0.00  0.00    +0.020 A 
ATOM      2  C   UNL     1     -17.231  20.874 -16.189  0.00  0.00    +0.013 A 
ATOM      3  C   UNL     1     -15.841  20.439 -16.255  0.00  0.00    +0.019 A 
ATOM     38  C   UNL     1     -15.415  19.677 -17.419  0.00  0.00    +0.120 A 
ATOM     39  N   UNL     1     -16.328  19.384 -18.427  0.00  0.00    -0.263 NA
ATOM     40  C   UNL     1     -17.668  19.795 -18.375  0.00  0.00    +0.111 A 
ENDBRANCH   4   3
ENDBRANCH  10   9
BRANCH  12  13
ATOM     13  N   UNL     1      -8.133  24.077 -12.985  0.00  0.00    -0.281 N 
ATOM     14  C   UNL     1      -8.800  25.139 -12.397  0.00  0.00    +0.248 C 
ATOM     30  O   UNL     1      -9.995  25.151 -12.144  0.00  0.00    -0.270 OA
ATOM     31  H   UNL     1      -7.188  24.269 -13.318  0.00  0.00    +0.155 HD
BRANCH  14  15
ATOM     15  C   UNL     1      -8.030  26.373 -12.053  0.00  0.00    +0.037 A 
ATOM     16  C   UNL     1      -6.608  26.310 -11.706  0.00  0.00    +0.013 A 
ATOM     17  C   UNL     1      -5.893  27.513 -11.361  0.00  0.00    +0.005 A 
ATOM     18  C   UNL     1      -6.599  28.792 -11.364  0.00  0.00    -0.033 A 
ATOM     28  C   UNL     1      -8.009  28.827 -11.718  0.00  0.00    +0.005 A 
ATOM     29  C   UNL     1      -8.713  27.649 -12.055  0.00  0.00    +0.013 A 
BRANCH  18  19
ATOM     19  C   UNL     1      -5.921  30.123 -10.990  0.00  0.00    +0.119 C 
BRANCH  19  20
ATOM     20  N   UNL     1      -5.189  30.846 -12.072  0.00  0.00    -0.302 NA
ATOM     21  C   UNL     1      -6.092  31.152 -13.271  0.00  0.00    +0.066 C 
ATOM     22  C   UNL     1      -5.315  31.928 -14.384  0.00  0.00    -0.064 C 
ATOM     23  N   UNL     1      -4.098  31.110 -14.818  0.00  0.00    +0.379 N 
ATOM     24  C   UNL     1      -3.398  31.810 -15.905  0.00  0.00    -0.096 C 
ATOM     25  H   UNL     1      -4.469  30.140 -15.223  0.00  0.00    -0.082 HD
ATOM     26  C   UNL     1      -3.196  30.799 -13.631  0.00  0.00    -0.064 C 
ATOM     27  C   UNL     1      -3.985  30.054 -12.518  0.00  0.00    +0.066 C 
ENDBRANCH  19  20
ENDBRANCH  18  19
ENDBRANCH  14  15
ENDBRANCH  12  13
TORSDOF 6
ENDMDL
MODEL 5
REMARK VINA RESULT:      -9.2      2.312     13.166
REMARK  Name = C:\Users\Docking\Desktop\test protocol\1iep_ligandH.pdb
REMARK  8 active torsions:
REMARK  status: ('A' for Active; 'I' for Inactive)
REMARK    1  A    between atoms: _5  and  _11
REMARK    2  A    between atoms: _19  and  _21
REMARK    3  A    between atoms: _22  and  _66
REMARK    4  A    between atoms: _27  and  _30
REMARK    5  A    between atoms: _32  and  _33
REMARK    6  A    between atoms: _38  and  _43
REMARK    7  A    between atoms: _43  and  _46
REMARK    8  A    between atoms: _53  and  _55
REMARK                            x       y       z     vdW  Elec       q    Type
REMARK                         _______ _______ _______ _____ _____    ______ ____
ROOT
ATOM     10  C   UNL     1     -10.022  21.148 -14.128  0.00  0.00    +0.038 A 
ATOM     11  C   UNL     1      -9.572  22.485 -13.986  0.00  0.00    +0.047 A 
ATOM     12  C   UNL     1      -8.469  22.817 -13.097  0.00  0.00    +0.035 A 
ATOM     32  C   UNL     1      -7.845  21.762 -12.370  0.00  0.00    +0.024 A 
ATOM     33  C   UNL     1      -8.291  20.397 -12.502  0.00  0.00    +0.007 A 
ATOM     34  C   UNL     1      -9.380  20.063 -13.375  0.00  0.00    -0.029 A 
ATOM     35  C   UNL     1      -9.820  18.584 -13.472  0.00  0.00    +0.045 C 
ENDROOT
BRANCH  10   9
ATOM      4  C   UNL     1     -14.711  20.777 -15.085  0.00  0.00    +0.077 A 
ATOM      5  C   UNL     1     -15.072  21.107 -13.736  0.00  0.00    +0.048 A 
ATOM      6  C   UNL     1     -14.022  21.359 -12.826  0.00  0.00    +0.116 A 
ATOM      7  N   UNL     1     -12.711  21.283 -13.244  0.00  0.00    -0.223 NA
ATOM      8  C   UNL     1     -12.396  20.960 -14.551  0.00  0.00    +0.220 A 
ATOM      9  N   UNL     1     -11.085  20.886 -14.995  0.00  0.00    -0.283 N 
ATOM     36  H   UNL     1     -10.895  20.637 -15.965  0.00  0.00    +0.155 HD
ATOM     37  N   UNL     1     -13.382  20.714 -15.439  0.00  0.00    -0.214 NA
BRANCH   4   3
ATOM      1  C   UNL     1     -16.370  19.504 -18.391  0.00  0.00    +0.020 A 
ATOM      2  C   UNL     1     -15.370  19.757 -17.379  0.00  0.00    +0.013 A 
ATOM      3  C   UNL     1     -15.707  20.488 -16.164  0.00  0.00    +0.019 A 
ATOM     38  C   UNL     1     -17.077  20.951 -16.001  0.00  0.00    +0.120 A 
ATOM     39  N   UNL     1     -18.019  20.694 -16.993  0.00  0.00    -0.263 NA
ATOM     40  C   UNL     1     -17.705  19.994 -18.167  0.00  0.00    +0.111 A 
ENDBRANCH   4   3
ENDBRANCH  10   9
BRANCH  12  13
ATOM     13  N   UNL     1      -7.974  24.158 -12.906  0.00  0.00    -0.281 N 
ATOM     14  C   UNL     1      -8.660  25.259 -12.420  0.00  0.00    +0.248 C 
ATOM     30  O   UNL     1      -9.873  25.308 -12.276  0.00  0.00    -0.270 OA
ATOM     31  H   UNL     1      -6.998  24.315 -13.160  0.00  0.00    +0.155 HD
BRANCH  14  15
ATOM     15  C   UNL     1      -7.891  26.487 -12.056  0.00  0.00    +0.037 A 
ATOM     16  C   UNL     1      -8.531  27.804 -12.028  0.00  0.00    +0.013 A 
ATOM     17  C   UNL     1      -7.761  28.975 -11.690  0.00  0.00    +0.005 A 
ATOM     18  C   UNL     1      -6.342  28.833 -11.374  0.00  0.00    -0.033 A 
ATOM     28  C   UNL     1      -5.734  27.513 -11.404  0.00  0.00    +0.005 A 
ATOM     29  C   UNL     1      -6.484  26.364 -11.737  0.00  0.00    +0.013 A 
BRANCH  18  19
ATOM     19  C   UNL     1      -5.439  30.030 -11.023  0.00  0.00    +0.119 C 
BRANCH  19  20
ATOM     20  N   UNL     1      -5.665  31.301 -11.775  0.00  0.00    -0.302 NA
ATOM     21  C   UNL     1      -5.037  31.261 -13.171  0.00  0.00    +0.066 C 
ATOM     22  C   UNL     1      -5.301  32.589 -13.952  0.00  0.00    -0.064 C 
ATOM     23  N   UNL     1      -4.756  33.769 -13.146  0.00  0.00    +0.379 N 
ATOM     24  C   UNL     1      -4.951  35.013 -13.905  0.00  0.00    -0.096 C 
ATOM     25  H   UNL     1      -3.658  33.616 -13.024  0.00  0.00    -0.082 HD
ATOM     26  C   UNL     1      -5.373  33.814 -11.756  0.00  0.00    -0.064 C 
ATOM     27  C   UNL     1      -5.130  32.479 -10.999  0.00  0.00    +0.066 C 
ENDBRANCH  19  20
ENDBRANCH  18  19
ENDBRANCH  14  15
ENDBRANCH  12  13
TORSDOF 6
ENDMDL
