MODEL 1
REMARK VINA RESULT:     -11.4      0.000      0.000
REMARK  Name = C:\Users\Docking\Desktop\test protocol\1iep_ligandH.pdb
REMARK  8 active torsions:
REMARK  status: ('A' for Active; 'I' for Inactive)
REMARK    1  A    between atoms: _5  and  _11
REMARK    2  A    between atoms: _19  and  _21
REMARK    3  A    between atoms: _22  and  _66
REMARK    4  A    between atoms: _27  and  _30
REMARK    5  A    between atoms: _32  and  _33
REMARK    6  A    between atoms: _38  and  _43
REMARK    7  A    between atoms: _43  and  _46
REMARK    8  A    between atoms: _53  and  _55
REMARK                            x       y       z     vdW  Elec       q    Type
REMARK                         _______ _______ _______ _____ _____    ______ ____
ROOT
ATOM     10  C   UNL     1      14.182  21.525  16.079  0.00  0.00    +0.038 A 
ATOM     11  C   UNL     1      15.157  21.632  15.055  0.00  0.00    +0.047 A 
ATOM     12  C   UNL     1      15.978  22.825  14.918  0.00  0.00    +0.035 A 
ATOM     32  C   UNL     1      15.780  23.890  15.845  0.00  0.00    +0.024 A 
ATOM     33  C   UNL     1      14.793  23.799  16.892  0.00  0.00    +0.007 A 
ATOM     34  C   UNL     1      13.979  22.625  17.030  0.00  0.00    -0.029 A 
ATOM     35  C   UNL     1      12.932  22.585  18.167  0.00  0.00    +0.045 C 
ENDROOT
BRANCH  10   9
ATOM      4  C   UNL     1      10.452  18.798  14.780  0.00  0.00    +0.077 A 
ATOM      5  C   UNL     1       9.961  19.797  13.876  0.00  0.00    +0.048 A 
ATOM      6  C   UNL     1      10.693  21.002  13.779  0.00  0.00    +0.116 A 
ATOM      7  N   UNL     1      11.831  21.182  14.536  0.00  0.00    -0.223 NA
ATOM      8  C   UNL     1      12.276  20.199  15.400  0.00  0.00    +0.220 A 
ATOM      9  N   UNL     1      13.422  20.356  16.164  0.00  0.00    -0.283 N 
ATOM     36  H   UNL     1      13.714  19.610  16.795  0.00  0.00    +0.155 HD
ATOM     37  N   UNL     1      11.594  19.040  15.511  0.00  0.00    -0.214 NA
BRANCH   4   3
ATOM      1  C   UNL     1       8.863  15.278  14.157  0.00  0.00    +0.020 A 
ATOM      2  C   UNL     1       9.504  16.547  13.900  0.00  0.00    +0.013 A 
ATOM      3  C   UNL     1       9.790  17.472  14.990  0.00  0.00    +0.019 A 
ATOM     38  C   UNL     1       9.413  17.078  16.340  0.00  0.00    +0.120 A 
ATOM     39  N   UNL     1       8.796  15.850  16.556  0.00  0.00    -0.263 NA
ATOM     40  C   UNL     1       8.514  14.953  15.515  0.00  0.00    +0.111 A 
ENDBRANCH   4   3
ENDBRANCH  10   9
BRANCH  12  13
ATOM     13  N   UNL     1      16.977  22.994  13.893  0.00  0.00    -0.281 N 
ATOM     14  C   UNL     1      18.349  23.102  14.051  0.00  0.00    +0.248 C 
ATOM     30  O   UNL     1      18.909  23.285  15.122  0.00  0.00    -0.270 OA
ATOM     31  H   UNL     1      16.632  23.039  12.934  0.00  0.00    +0.155 HD
BRANCH  14  15
ATOM     15  C   UNL     1      19.225  23.007  12.844  0.00  0.00    +0.037 A 
ATOM     16  C   UNL     1      20.394  22.124  12.819  0.00  0.00    +0.013 A 
ATOM     17  C   UNL     1      21.231  22.064  11.648  0.00  0.00    +0.005 A 
ATOM     18  C   UNL     1      20.902  22.891  10.489  0.00  0.00    -0.033 A 
ATOM     28  C   UNL     1      19.733  23.754  10.538  0.00  0.00    +0.005 A 
ATOM     29  C   UNL     1      18.911  23.816  11.685  0.00  0.00    +0.013 A 
BRANCH  18  19
ATOM     19  C   UNL     1      21.751  22.907   9.205  0.00  0.00    +0.119 C 
BRANCH  19  20
ATOM     20  N   UNL     1      21.555  21.783   8.241  0.00  0.00    -0.302 NA
ATOM     21  C   UNL     1      22.302  20.518   8.675  0.00  0.00    +0.066 C 
ATOM     22  C   UNL     1      22.068  19.346   7.667  0.00  0.00    -0.064 C 
ATOM     23  N   UNL     1      22.509  19.782   6.269  0.00  0.00    +0.379 N 
ATOM     24  C   UNL     1      22.344  18.663   5.331  0.00  0.00    -0.096 C 
ATOM     25  H   UNL     1      23.596  20.026   6.319  0.00  0.00    -0.082 HD
ATOM     26  C   UNL     1      21.774  21.041   5.831  0.00  0.00    -0.064 C 
ATOM     27  C   UNL     1      21.989  22.191   6.854  0.00  0.00    +0.066 C 
ENDBRANCH  19  20
ENDBRANCH  18  19
ENDBRANCH  14  15
ENDBRANCH  12  13
TORSDOF 6
ENDMDL
MODEL 2
REMARK VINA RESULT:     -11.1      7.608     10.673
REMARK  Name = C:\Users\Docking\Desktop\test protocol\1iep_ligandH.pdb
REMARK  8 active torsions:
REMARK  status: ('A' for Active; 'I' for Inactive)
REMARK    1  A    between atoms: _5  and  _11
REMARK    2  A    between atoms: _19  and  _21
REMARK    3  A    between atoms: _22  and  _66
REMARK    4  A    between atoms: _27  and  _30
REMARK    5  A    between atoms: _32  and  _33
REMARK    6  A    between atoms: _38  and  _43
REMARK    7  A    between atoms: _43  and  _46
REMARK    8  A    between atoms: _53  and  _55
REMARK                            x       y       z     vdW  Elec       q    Type
REMARK                         _______ _______ _______ _____ _____    ______ ____
ROOT
ATOM     10  C   UNL     1      10.733  23.589  13.291  0.00  0.00    +0.038 A 
ATOM     11  C   UNL     1       9.905  23.975  12.207  0.00  0.00    +0.047 A 
ATOM     12  C   UNL     1      10.200  25.163  11.421  0.00  0.00    +0.035 A 
ATOM     32  C   UNL     1      11.348  25.933  11.765  0.00  0.00    +0.024 A 
ATOM     33  C   UNL     1      12.201  25.556  12.866  0.00  0.00    +0.007 A 
ATOM     34  C   UNL     1      11.913  24.387  13.646  0.00  0.00    -0.029 A 
ATOM     35  C   UNL     1      12.858  24.033  14.818  0.00  0.00    +0.045 C 
ENDROOT
BRANCH  10   9
ATOM      4  C   UNL     1      10.109  18.842  13.635  0.00  0.00    +0.077 A 
ATOM      5  C   UNL     1      10.442  18.639  12.254  0.00  0.00    +0.048 A 
ATOM      6  C   UNL     1      10.761  19.783  11.488  0.00  0.00    +0.116 A 
ATOM      7  N   UNL     1      10.745  21.032  12.070  0.00  0.00    -0.223 NA
ATOM      8  C   UNL     1      10.418  21.193  13.404  0.00  0.00    +0.220 A 
ATOM      9  N   UNL     1      10.403  22.439  14.012  0.00  0.00    -0.283 N 
ATOM     36  H   UNL     1      10.149  22.517  14.997  0.00  0.00    +0.155 HD
ATOM     37  N   UNL     1      10.108  20.117  14.156  0.00  0.00    -0.214 NA
BRANCH   4   3
ATOM      1  C   UNL     1       9.168  15.331  15.079  0.00  0.00    +0.020 A 
ATOM      2  C   UNL     1       9.509  16.366  14.130  0.00  0.00    +0.013 A 
ATOM      3  C   UNL     1       9.752  17.733  14.574  0.00  0.00    +0.019 A 
ATOM     38  C   UNL     1       9.641  18.021  15.996  0.00  0.00    +0.120 A 
ATOM     39  N   UNL     1       9.310  17.004  16.886  0.00  0.00    -0.263 NA
ATOM     40  C   UNL     1       9.072  15.685  16.470  0.00  0.00    +0.111 A 
ENDBRANCH   4   3
ENDBRANCH  10   9
BRANCH  12  13
ATOM     13  N   UNL     1       9.391  25.609  10.313  0.00  0.00    -0.281 N 
ATOM     14  C   UNL     1       9.712  25.600   8.966  0.00  0.00    +0.248 C 
ATOM     30  O   UNL     1      10.835  25.403   8.524  0.00  0.00    -0.270 OA
ATOM     31  H   UNL     1       8.470  25.976  10.552  0.00  0.00    +0.155 HD
BRANCH  14  15
ATOM     15  C   UNL     1       8.634  25.861   7.965  0.00  0.00    +0.037 A 
ATOM     16  C   UNL     1       8.953  26.229   6.583  0.00  0.00    +0.013 A 
ATOM     17  C   UNL     1       7.893  26.492   5.642  0.00  0.00    +0.005 A 
ATOM     18  C   UNL     1       6.503  26.387   6.080  0.00  0.00    -0.033 A 
ATOM     28  C   UNL     1       6.215  26.014   7.455  0.00  0.00    +0.005 A 
ATOM     29  C   UNL     1       7.251  25.757   8.380  0.00  0.00    +0.013 A 
BRANCH  18  19
ATOM     19  C   UNL     1       5.309  26.670   5.149  0.00  0.00    +0.119 C 
BRANCH  19  20
ATOM     20  N   UNL     1       4.929  25.600   4.179  0.00  0.00    -0.302 NA
ATOM     21  C   UNL     1       5.034  24.203   4.796  0.00  0.00    +0.066 C 
ATOM     22  C   UNL     1       4.611  23.097   3.774  0.00  0.00    -0.064 C 
ATOM     23  N   UNL     1       5.482  23.203   2.522  0.00  0.00    +0.379 N 
ATOM     24  C   UNL     1       5.126  22.129   1.583  0.00  0.00    -0.096 C 
ATOM     25  H   UNL     1       6.541  23.045   2.832  0.00  0.00    -0.082 HD
ATOM     26  C   UNL     1       5.386  24.591   1.904  0.00  0.00    -0.064 C 
ATOM     27  C   UNL     1       5.780  25.684   2.936  0.00  0.00    +0.066 C 
ENDBRANCH  19  20
ENDBRANCH  18  19
ENDBRANCH  14  15
ENDBRANCH  12  13
TORSDOF 6
ENDMDL
MODEL 3
REMARK VINA RESULT:     -10.8      7.791     12.040
REMARK  Name = C:\Users\Docking\Desktop\test protocol\1iep_ligandH.pdb
REMARK  8 active torsions:
REMARK  status: ('A' for Active; 'I' for Inactive)
REMARK    1  A    between atoms: _5  and  _11
REMARK    2  A    between atoms: _19  and  _21
REMARK    3  A    between atoms: _22  and  _66
REMARK    4  A    between atoms: _27  and  _30
REMARK    5  A    between atoms: _32  and  _33
REMARK    6  A    between atoms: _38  and  _43
REMARK    7  A    between atoms: _43  and  _46
REMARK    8  A    between atoms: _53  and  _55
REMARK                            x       y       z     vdW  Elec       q    Type
REMARK                         _______ _______ _______ _____ _____    ______ ____
ROOT
ATOM     10  C   UNL     1      10.603  23.598  13.202  0.00  0.00    +0.038 A 
ATOM     11  C   UNL     1       9.679  24.020  12.212  0.00  0.00    +0.047 A 
ATOM     12  C   UNL     1       9.933  25.200  11.399  0.00  0.00    +0.035 A 
ATOM     32  C   UNL     1      11.141  25.924  11.620  0.00  0.00    +0.024 A 
ATOM     33  C   UNL     1      12.091  25.509  12.622  0.00  0.00    +0.007 A 
ATOM     34  C   UNL     1      11.844  24.348  13.429  0.00  0.00    -0.029 A 
ATOM     35  C   UNL     1      12.894  23.954  14.493  0.00  0.00    +0.045 C 
ENDROOT
BRANCH  10   9
ATOM      4  C   UNL     1      10.107  18.847  13.668  0.00  0.00    +0.077 A 
ATOM      5  C   UNL     1      10.438  18.618  12.291  0.00  0.00    +0.048 A 
ATOM      6  C   UNL     1      10.722  19.750  11.495  0.00  0.00    +0.116 A 
ATOM      7  N   UNL     1      10.676  21.012  12.046  0.00  0.00    -0.223 NA
ATOM      8  C   UNL     1      10.352  21.198  13.377  0.00  0.00    +0.220 A 
ATOM      9  N   UNL     1      10.307  22.458  13.953  0.00  0.00    -0.283 N 
ATOM     36  H   UNL     1      10.057  22.554  14.937  0.00  0.00    +0.155 HD
ATOM     37  N   UNL     1      10.075  20.133  14.158  0.00  0.00    -0.214 NA
BRANCH   4   3
ATOM      1  C   UNL     1       9.185  15.367  15.198  0.00  0.00    +0.020 A 
ATOM      2  C   UNL     1       9.489  16.387  14.221  0.00  0.00    +0.013 A 
ATOM      3  C   UNL     1       9.785  17.752  14.638  0.00  0.00    +0.019 A 
ATOM     38  C   UNL     1       9.766  18.054  16.061  0.00  0.00    +0.120 A 
ATOM     39  N   UNL     1       9.469  17.051  16.978  0.00  0.00    -0.263 NA
ATOM     40  C   UNL     1       9.180  15.734  16.589  0.00  0.00    +0.111 A 
ENDBRANCH   4   3
ENDBRANCH  10   9
BRANCH  12  13
ATOM     13  N   UNL     1       9.029  25.681  10.385  0.00  0.00    -0.281 N 
ATOM     14  C   UNL     1       9.214  25.689   9.012  0.00  0.00    +0.248 C 
ATOM     30  O   UNL     1      10.283  25.477   8.458  0.00  0.00    -0.270 OA
ATOM     31  H   UNL     1       8.144  26.063  10.720  0.00  0.00    +0.155 HD
BRANCH  14  15
ATOM     15  C   UNL     1       8.048  25.990   8.128  0.00  0.00    +0.037 A 
ATOM     16  C   UNL     1       8.163  25.922   6.669  0.00  0.00    +0.013 A 
ATOM     17  C   UNL     1       7.027  26.234   5.838  0.00  0.00    +0.005 A 
ATOM     18  C   UNL     1       5.764  26.614   6.466  0.00  0.00    -0.033 A 
ATOM     28  C   UNL     1       5.676  26.668   7.916  0.00  0.00    +0.005 A 
ATOM     29  C   UNL     1       6.787  26.364   8.733  0.00  0.00    +0.013 A 
BRANCH  18  19
ATOM     19  C   UNL     1       4.506  26.984   5.657  0.00  0.00    +0.119 C 
BRANCH  19  20
ATOM     20  N   UNL     1       3.186  26.566   6.217  0.00  0.00    -0.302 NA
ATOM     21  C   UNL     1       3.099  25.050   6.412  0.00  0.00    +0.066 C 
ATOM     22  C   UNL     1       1.720  24.632   7.020  0.00  0.00    -0.064 C 
ATOM     23  N   UNL     1       0.595  25.127   6.110  0.00  0.00    +0.379 N 
ATOM     24  C   UNL     1      -0.701  24.686   6.648  0.00  0.00    -0.096 C 
ATOM     25  H   UNL     1       0.729  24.645   5.113  0.00  0.00    -0.082 HD
ATOM     26  C   UNL     1       0.675  26.633   5.908  0.00  0.00    -0.064 C 
ATOM     27  C   UNL     1       2.060  27.040   5.332  0.00  0.00    +0.066 C 
ENDBRANCH  19  20
ENDBRANCH  18  19
ENDBRANCH  14  15
ENDBRANCH  12  13
TORSDOF 6
ENDMDL
MODEL 4
REMARK VINA RESULT:     -10.7      5.924      7.500
REMARK  Name = C:\Users\Docking\Desktop\test protocol\1iep_ligandH.pdb
REMARK  8 active torsions:
REMARK  status: ('A' for Active; 'I' for Inactive)
REMARK    1  A    between atoms: _5  and  _11
REMARK    2  A    between atoms: _19  and  _21
REMARK    3  A    between atoms: _22  and  _66
REMARK    4  A    between atoms: _27  and  _30
REMARK    5  A    between atoms: _32  and  _33
REMARK    6  A    between atoms: _38  and  _43
REMARK    7  A    between atoms: _43  and  _46
REMARK    8  A    between atoms: _53  and  _55
REMARK                            x       y       z     vdW  Elec       q    Type
REMARK                         _______ _______ _______ _____ _____    ______ ____
ROOT
ATOM     10  C   UNL     1       9.857  25.158  11.679  0.00  0.00    +0.038 A 
ATOM     11  C   UNL     1      10.846  25.289  10.670  0.00  0.00    +0.047 A 
ATOM     12  C   UNL     1      10.494  25.711   9.323  0.00  0.00    +0.035 A 
ATOM     32  C   UNL     1       9.126  25.992   9.038  0.00  0.00    +0.024 A 
ATOM     33  C   UNL     1       8.109  25.862  10.051  0.00  0.00    +0.007 A 
ATOM     34  C   UNL     1       8.449  25.445  11.381  0.00  0.00    -0.029 A 
ATOM     35  C   UNL     1       7.316  25.317  12.426  0.00  0.00    +0.045 C 
ENDROOT
BRANCH  10   9
ATOM      4  C   UNL     1      11.153  21.778  14.831  0.00  0.00    +0.077 A 
ATOM      5  C   UNL     1      11.008  20.732  13.859  0.00  0.00    +0.048 A 
ATOM      6  C   UNL     1      10.591  21.106  12.562  0.00  0.00    +0.116 A 
ATOM      7  N   UNL     1      10.341  22.429  12.269  0.00  0.00    -0.223 NA
ATOM      8  C   UNL     1      10.489  23.412  13.230  0.00  0.00    +0.220 A 
ATOM      9  N   UNL     1      10.251  24.750  12.956  0.00  0.00    -0.283 N 
ATOM     36  H   UNL     1      10.364  25.444  13.694  0.00  0.00    +0.155 HD
ATOM     37  N   UNL     1      10.884  23.081  14.477  0.00  0.00    -0.214 NA
BRANCH   4   3
ATOM      1  C   UNL     1      12.809  22.211  18.348  0.00  0.00    +0.020 A 
ATOM      2  C   UNL     1      12.416  22.486  16.985  0.00  0.00    +0.013 A 
ATOM      3  C   UNL     1      11.588  21.543  16.244  0.00  0.00    +0.019 A 
ATOM     38  C   UNL     1      11.171  20.322  16.917  0.00  0.00    +0.120 A 
ATOM     39  N   UNL     1      11.566  20.083  18.229  0.00  0.00    -0.263 NA
ATOM     40  C   UNL     1      12.364  20.983  18.952  0.00  0.00    +0.111 A 
ENDBRANCH   4   3
ENDBRANCH  10   9
BRANCH  12  13
ATOM     13  N   UNL     1      11.453  25.854   8.256  0.00  0.00    -0.281 N 
ATOM     14  C   UNL     1      12.532  26.721   8.191  0.00  0.00    +0.248 C 
ATOM     30  O   UNL     1      12.712  27.659   8.953  0.00  0.00    -0.270 OA
ATOM     31  H   UNL     1      11.321  25.242   7.450  0.00  0.00    +0.155 HD
BRANCH  14  15
ATOM     15  C   UNL     1      13.551  26.527   7.115  0.00  0.00    +0.037 A 
ATOM     16  C   UNL     1      14.733  27.387   7.023  0.00  0.00    +0.013 A 
ATOM     17  C   UNL     1      15.692  27.189   5.965  0.00  0.00    +0.005 A 
ATOM     18  C   UNL     1      15.472  26.123   4.990  0.00  0.00    -0.033 A 
ATOM     28  C   UNL     1      14.294  25.280   5.108  0.00  0.00    +0.005 A 
ATOM     29  C   UNL     1      13.351  25.473   6.143  0.00  0.00    +0.013 A 
BRANCH  18  19
ATOM     19  C   UNL     1      16.432  25.853   3.816  0.00  0.00    +0.119 C 
BRANCH  19  20
ATOM     20  N   UNL     1      16.158  24.652   2.972  0.00  0.00    -0.302 NA
ATOM     21  C   UNL     1      16.835  23.395   3.524  0.00  0.00    +0.066 C 
ATOM     22  C   UNL     1      16.520  22.144   2.641  0.00  0.00    -0.064 C 
ATOM     23  N   UNL     1      16.967  22.412   1.203  0.00  0.00    +0.379 N 
ATOM     24  C   UNL     1      16.724  21.216   0.383  0.00  0.00    -0.096 C 
ATOM     25  H   UNL     1      18.066  22.594   1.219  0.00  0.00    -0.082 HD
ATOM     26  C   UNL     1      16.300  23.662   0.647  0.00  0.00    -0.064 C 
ATOM     27  C   UNL     1      16.595  24.894   1.548  0.00  0.00    +0.066 C 
ENDBRANCH  19  20
ENDBRANCH  18  19
ENDBRANCH  14  15
ENDBRANCH  12  13
TORSDOF 6
ENDMDL
MODEL 5
REMARK VINA RESULT:     -10.7      6.363     12.821
REMARK  Name = C:\Users\Docking\Desktop\test protocol\1iep_ligandH.pdb
REMARK  8 active torsions:
REMARK  status: ('A' for Active; 'I' for Inactive)
REMARK    1  A    between atoms: _5  and  _11
REMARK    2  A    between atoms: _19  and  _21
REMARK    3  A    between atoms: _22  and  _66
REMARK    4  A    between atoms: _27  and  _30
REMARK    5  A    between atoms: _32  and  _33
REMARK    6  A    between atoms: _38  and  _43
REMARK    7  A    between atoms: _43  and  _46
REMARK    8  A    between atoms: _53  and  _55
REMARK                            x       y       z     vdW  Elec       q    Type
REMARK                         _______ _______ _______ _____ _____    ______ ____
ROOT
ATOM     10  C   UNL     1      11.833  24.160  13.903  0.00  0.00    +0.038 A 
ATOM     11  C   UNL     1      11.145  22.936  14.102  0.00  0.00    +0.047 A 
ATOM     12  C   UNL     1      11.849  21.663  14.067  0.00  0.00    +0.035 A 
ATOM     32  C   UNL     1      13.254  21.675  13.830  0.00  0.00    +0.024 A 
ATOM     33  C   UNL     1      13.969  22.911  13.624  0.00  0.00    +0.007 A 
ATOM     34  C   UNL     1      13.279  24.169  13.656  0.00  0.00    -0.029 A 
ATOM     35  C   UNL     1      14.095  25.462  13.423  0.00  0.00    +0.045 C 
ENDROOT
BRANCH  10   9
ATOM      4  C   UNL     1       8.850  27.375  11.952  0.00  0.00    +0.077 A 
ATOM      5  C   UNL     1       8.750  26.629  10.731  0.00  0.00    +0.048 A 
ATOM      6  C   UNL     1       9.487  25.427  10.642  0.00  0.00    +0.116 A 
ATOM      7  N   UNL     1      10.263  25.011  11.703  0.00  0.00    -0.223 NA
ATOM      8  C   UNL     1      10.339  25.756  12.866  0.00  0.00    +0.220 A 
ATOM      9  N   UNL     1      11.107  25.353  13.947  0.00  0.00    -0.283 N 
ATOM     36  H   UNL     1      11.142  25.934  14.785  0.00  0.00    +0.155 HD
ATOM     37  N   UNL     1       9.645  26.908  12.974  0.00  0.00    -0.214 NA
BRANCH   4   3
ATOM      1  C   UNL     1       6.181  30.234  11.871  0.00  0.00    +0.020 A 
ATOM      2  C   UNL     1       6.836  28.975  11.599  0.00  0.00    +0.013 A 
ATOM      3  C   UNL     1       8.128  28.663  12.198  0.00  0.00    +0.019 A 
ATOM     38  C   UNL     1       8.734  29.654  13.075  0.00  0.00    +0.120 A 
ATOM     39  N   UNL     1       8.080  30.858  13.317  0.00  0.00    -0.263 NA
ATOM     40  C   UNL     1       6.838  31.170  12.744  0.00  0.00    +0.111 A 
ENDBRANCH   4   3
ENDBRANCH  10   9
BRANCH  12  13
ATOM     13  N   UNL     1      11.203  20.388  14.253  0.00  0.00    -0.281 N 
ATOM     14  C   UNL     1      11.527  19.394  15.162  0.00  0.00    +0.248 C 
ATOM     30  O   UNL     1      12.562  19.362  15.811  0.00  0.00    -0.270 OA
ATOM     31  H   UNL     1      10.409  20.195  13.642  0.00  0.00    +0.155 HD
BRANCH  14  15
ATOM     15  C   UNL     1      10.571  18.264  15.368  0.00  0.00    +0.037 A 
ATOM     16  C   UNL     1       9.783  17.723  14.258  0.00  0.00    +0.013 A 
ATOM     17  C   UNL     1       8.854  16.644  14.488  0.00  0.00    +0.005 A 
ATOM     18  C   UNL     1       8.711  16.098  15.835  0.00  0.00    -0.033 A 
ATOM     28  C   UNL     1       9.509  16.650  16.917  0.00  0.00    +0.005 A 
ATOM     29  C   UNL     1      10.419  17.708  16.696  0.00  0.00    +0.013 A 
BRANCH  18  19
ATOM     19  C   UNL     1       7.730  14.961  16.177  0.00  0.00    +0.119 C 
BRANCH  19  20
ATOM     20  N   UNL     1       6.380  15.352  16.684  0.00  0.00    -0.302 NA
ATOM     21  C   UNL     1       5.500  15.943  15.579  0.00  0.00    +0.066 C 
ATOM     22  C   UNL     1       4.085  16.325  16.123  0.00  0.00    -0.064 C 
ATOM     23  N   UNL     1       4.236  17.312  17.281  0.00  0.00    +0.379 N 
ATOM     24  C   UNL     1       2.905  17.719  17.756  0.00  0.00    -0.096 C 
ATOM     25  H   UNL     1       4.746  18.222  16.886  0.00  0.00    -0.082 HD
ATOM     26  C   UNL     1       5.112  16.734  18.383  0.00  0.00    -0.064 C 
ATOM     27  C   UNL     1       6.506  16.330  17.826  0.00  0.00    +0.066 C 
ENDBRANCH  19  20
ENDBRANCH  18  19
ENDBRANCH  14  15
ENDBRANCH  12  13
TORSDOF 6
ENDMDL
