MODEL 1
REMARK VINA RESULT:      -9.8      0.000      0.000
REMARK  Name = C:\Users\Docking\Desktop\test protocol\1iep_ligandH.pdb
REMARK  8 active torsions:
REMARK  status: ('A' for Active; 'I' for Inactive)
REMARK    1  A    between atoms: _5  and  _11
REMARK    2  A    between atoms: _19  and  _21
REMARK    3  A    between atoms: _22  and  _66
REMARK    4  A    between atoms: _27  and  _30
REMARK    5  A    between atoms: _32  and  _33
REMARK    6  A    between atoms: _38  and  _43
REMARK    7  A    between atoms: _43  and  _46
REMARK    8  A    between atoms: _53  and  _55
REMARK                            x       y       z     vdW  Elec       q    Type
REMARK                         _______ _______ _______ _____ _____    ______ ____
ROOT
ATOM     10  C   UNL     1     -20.091 -17.316  19.393  0.00  0.00    +0.038 A 
ATOM     11  C   UNL     1     -18.854 -17.631  18.775  0.00  0.00    +0.047 A 
ATOM     12  C   UNL     1     -18.295 -18.972  18.852  0.00  0.00    +0.035 A 
ATOM     32  C   UNL     1     -19.025 -19.969  19.563  0.00  0.00    +0.024 A 
ATOM     33  C   UNL     1     -20.284 -19.665  20.197  0.00  0.00    +0.007 A 
ATOM     34  C   UNL     1     -20.839 -18.344  20.128  0.00  0.00    -0.029 A 
ATOM     35  C   UNL     1     -22.189 -18.074  20.832  0.00  0.00    +0.045 C 
ENDROOT
BRANCH  10   9
ATOM      4  C   UNL     1     -20.985 -12.970  21.223  0.00  0.00    +0.077 A 
ATOM      5  C   UNL     1     -20.455 -13.336  22.505  0.00  0.00    +0.048 A 
ATOM      6  C   UNL     1     -19.969 -14.654  22.654  0.00  0.00    +0.116 A 
ATOM      7  N   UNL     1     -20.014 -15.533  21.593  0.00  0.00    -0.223 NA
ATOM      8  C   UNL     1     -20.533 -15.148  20.371  0.00  0.00    +0.220 A 
ATOM      9  N   UNL     1     -20.582 -16.012  19.288  0.00  0.00    -0.283 N 
ATOM     36  H   UNL     1     -20.979 -15.693  18.405  0.00  0.00    +0.155 HD
ATOM     37  N   UNL     1     -21.005 -13.895  20.204  0.00  0.00    -0.214 NA
BRANCH   4   3
ATOM      1  C   UNL     1     -23.151  -9.714  21.281  0.00  0.00    +0.020 A 
ATOM      2  C   UNL     1     -22.661 -11.029  21.624  0.00  0.00    +0.013 A 
ATOM      3  C   UNL     1     -21.533 -11.613  20.909  0.00  0.00    +0.019 A 
ATOM     38  C   UNL     1     -20.918 -10.833  19.845  0.00  0.00    +0.120 A 
ATOM     39  N   UNL     1     -21.413  -9.570  19.536  0.00  0.00    -0.263 NA
ATOM     40  C   UNL     1     -22.499  -8.999  20.216  0.00  0.00    +0.111 A 
ENDBRANCH   4   3
ENDBRANCH  10   9
BRANCH  12  13
ATOM     13  N   UNL     1     -17.039 -19.349  18.252  0.00  0.00    -0.281 N 
ATOM     14  C   UNL     1     -16.832 -20.162  17.149  0.00  0.00    +0.248 C 
ATOM     30  O   UNL     1     -17.691 -20.865  16.638  0.00  0.00    -0.270 OA
ATOM     31  H   UNL     1     -16.201 -18.970  18.693  0.00  0.00    +0.155 HD
BRANCH  14  15
ATOM     15  C   UNL     1     -15.471 -20.213  16.535  0.00  0.00    +0.037 A 
ATOM     16  C   UNL     1     -14.266 -19.981  17.337  0.00  0.00    +0.013 A 
ATOM     17  C   UNL     1     -12.966 -20.019  16.716  0.00  0.00    +0.005 A 
ATOM     18  C   UNL     1     -12.864 -20.291  15.284  0.00  0.00    -0.033 A 
ATOM     28  C   UNL     1     -14.074 -20.521  14.513  0.00  0.00    +0.005 A 
ATOM     29  C   UNL     1     -15.351 -20.484  15.118  0.00  0.00    +0.013 A 
BRANCH  18  19
ATOM     19  C   UNL     1     -11.519 -20.329  14.534  0.00  0.00    +0.119 C 
BRANCH  19  20
ATOM     20  N   UNL     1     -11.349 -21.382  13.488  0.00  0.00    -0.302 NA
ATOM     21  C   UNL     1     -11.127 -22.768  14.100  0.00  0.00    +0.066 C 
ATOM     22  C   UNL     1     -10.973 -23.861  12.992  0.00  0.00    -0.064 C 
ATOM     23  N   UNL     1      -9.815 -23.485  12.067  0.00  0.00    +0.379 N 
ATOM     24  C   UNL     1      -9.631 -24.540  11.059  0.00  0.00    -0.096 C 
ATOM     25  H   UNL     1      -8.888 -23.443  12.686  0.00  0.00    -0.082 HD
ATOM     26  C   UNL     1     -10.026 -22.107  11.457  0.00  0.00    -0.064 C 
ATOM     27  C   UNL     1     -10.207 -21.033  12.566  0.00  0.00    +0.066 C 
ENDBRANCH  19  20
ENDBRANCH  18  19
ENDBRANCH  14  15
ENDBRANCH  12  13
TORSDOF 6
ENDMDL
MODEL 2
REMARK VINA RESULT:      -9.6      2.142      3.162
REMARK  Name = C:\Users\Docking\Desktop\test protocol\1iep_ligandH.pdb
REMARK  8 active torsions:
REMARK  status: ('A' for Active; 'I' for Inactive)
REMARK    1  A    between atoms: _5  and  _11
REMARK    2  A    between atoms: _19  and  _21
REMARK    3  A    between atoms: _22  and  _66
REMARK    4  A    between atoms: _27  and  _30
REMARK    5  A    between atoms: _32  and  _33
REMARK    6  A    between atoms: _38  and  _43
REMARK    7  A    between atoms: _43  and  _46
REMARK    8  A    between atoms: _53  and  _55
REMARK                            x       y       z     vdW  Elec       q    Type
REMARK                         _______ _______ _______ _____ _____    ______ ____
ROOT
ATOM     10  C   UNL     1     -20.121 -17.341  19.278  0.00  0.00    +0.038 A 
ATOM     11  C   UNL     1     -18.808 -17.577  18.797  0.00  0.00    +0.047 A 
ATOM     12  C   UNL     1     -18.224 -18.909  18.826  0.00  0.00    +0.035 A 
ATOM     32  C   UNL     1     -19.007 -19.979  19.350  0.00  0.00    +0.024 A 
ATOM     33  C   UNL     1     -20.343 -19.757  19.844  0.00  0.00    +0.007 A 
ATOM     34  C   UNL     1     -20.923 -18.444  19.820  0.00  0.00    -0.029 A 
ATOM     35  C   UNL     1     -22.358 -18.263  20.369  0.00  0.00    +0.045 C 
ENDROOT
BRANCH  10   9
ATOM      4  C   UNL     1     -21.021 -13.064  21.261  0.00  0.00    +0.077 A 
ATOM      5  C   UNL     1     -20.449 -13.459  22.516  0.00  0.00    +0.048 A 
ATOM      6  C   UNL     1     -19.940 -14.774  22.612  0.00  0.00    +0.116 A 
ATOM      7  N   UNL     1     -20.004 -15.622  21.527  0.00  0.00    -0.223 NA
ATOM      8  C   UNL     1     -20.565 -15.209  20.332  0.00  0.00    +0.220 A 
ATOM      9  N   UNL     1     -20.632 -16.042  19.226  0.00  0.00    -0.283 N 
ATOM     36  H   UNL     1     -21.060 -15.703  18.364  0.00  0.00    +0.155 HD
ATOM     37  N   UNL     1     -21.058 -13.959  20.215  0.00  0.00    -0.214 NA
BRANCH   4   3
ATOM      1  C   UNL     1     -23.239  -9.848  21.469  0.00  0.00    +0.020 A 
ATOM      2  C   UNL     1     -22.721 -11.166  21.758  0.00  0.00    +0.013 A 
ATOM      3  C   UNL     1     -21.597 -11.706  21.003  0.00  0.00    +0.019 A 
ATOM     38  C   UNL     1     -21.016 -10.882  19.955  0.00  0.00    +0.120 A 
ATOM     39  N   UNL     1     -21.536  -9.617  19.698  0.00  0.00    -0.263 NA
ATOM     40  C   UNL     1     -22.619  -9.087  20.416  0.00  0.00    +0.111 A 
ENDBRANCH   4   3
ENDBRANCH  10   9
BRANCH  12  13
ATOM     13  N   UNL     1     -16.893 -19.208  18.359  0.00  0.00    -0.281 N 
ATOM     14  C   UNL     1     -16.527 -19.948  17.247  0.00  0.00    +0.248 C 
ATOM     30  O   UNL     1     -17.291 -20.650  16.601  0.00  0.00    -0.270 OA
ATOM     31  H   UNL     1     -16.128 -18.827  18.916  0.00  0.00    +0.155 HD
BRANCH  14  15
ATOM     15  C   UNL     1     -15.102 -19.917  16.796  0.00  0.00    +0.037 A 
ATOM     16  C   UNL     1     -14.735 -20.241  15.415  0.00  0.00    +0.013 A 
ATOM     17  C   UNL     1     -13.352 -20.219  15.010  0.00  0.00    +0.005 A 
ATOM     18  C   UNL     1     -12.325 -19.871  15.989  0.00  0.00    -0.033 A 
ATOM     28  C   UNL     1     -12.717 -19.549  17.351  0.00  0.00    +0.005 A 
ATOM     29  C   UNL     1     -14.072 -19.570  17.751  0.00  0.00    +0.013 A 
BRANCH  18  19
ATOM     19  C   UNL     1     -10.822 -19.843  15.651  0.00  0.00    +0.119 C 
BRANCH  19  20
ATOM     20  N   UNL     1     -10.163 -18.505  15.576  0.00  0.00    -0.302 NA
ATOM     21  C   UNL     1      -9.550 -18.243  14.197  0.00  0.00    +0.066 C 
ATOM     22  C   UNL     1      -8.884 -16.830  14.129  0.00  0.00    -0.064 C 
ATOM     23  N   UNL     1      -7.822 -16.718  15.224  0.00  0.00    +0.379 N 
ATOM     24  C   UNL     1      -7.154 -15.412  15.126  0.00  0.00    -0.096 C 
ATOM     25  H   UNL     1      -7.056 -17.505  15.034  0.00  0.00    -0.082 HD
ATOM     26  C   UNL     1      -8.422 -16.979  16.598  0.00  0.00    -0.064 C 
ATOM     27  C   UNL     1      -9.107 -18.374  16.645  0.00  0.00    +0.066 C 
ENDBRANCH  19  20
ENDBRANCH  18  19
ENDBRANCH  14  15
ENDBRANCH  12  13
TORSDOF 6
ENDMDL
MODEL 3
REMARK VINA RESULT:      -9.6      5.723      9.284
REMARK  Name = C:\Users\Docking\Desktop\test protocol\1iep_ligandH.pdb
REMARK  8 active torsions:
REMARK  status: ('A' for Active; 'I' for Inactive)
REMARK    1  A    between atoms: _5  and  _11
REMARK    2  A    between atoms: _19  and  _21
REMARK    3  A    between atoms: _22  and  _66
REMARK    4  A    between atoms: _27  and  _30
REMARK    5  A    between atoms: _32  and  _33
REMARK    6  A    between atoms: _38  and  _43
REMARK    7  A    between atoms: _43  and  _46
REMARK    8  A    between atoms: _53  and  _55
REMARK                            x       y       z     vdW  Elec       q    Type
REMARK                         _______ _______ _______ _____ _____    ______ ____
ROOT
ATOM     10  C   UNL     1     -13.507 -20.821  15.096  0.00  0.00    +0.038 A 
ATOM     11  C   UNL     1     -12.619 -19.716  15.135  0.00  0.00    +0.047 A 
ATOM     12  C   UNL     1     -11.201 -19.879  14.856  0.00  0.00    +0.035 A 
ATOM     32  C   UNL     1     -10.721 -21.183  14.538  0.00  0.00    +0.024 A 
ATOM     33  C   UNL     1     -11.609 -22.318  14.495  0.00  0.00    +0.007 A 
ATOM     34  C   UNL     1     -13.008 -22.164  14.772  0.00  0.00    -0.029 A 
ATOM     35  C   UNL     1     -13.913 -23.417  14.718  0.00  0.00    +0.045 C 
ENDROOT
BRANCH  10   9
ATOM      4  C   UNL     1     -17.073 -19.529  18.037  0.00  0.00    +0.077 A 
ATOM      5  C   UNL     1     -16.168 -19.286  19.124  0.00  0.00    +0.048 A 
ATOM      6  C   UNL     1     -14.794 -19.513  18.887  0.00  0.00    +0.116 A 
ATOM      7  N   UNL     1     -14.367 -19.949  17.651  0.00  0.00    -0.223 NA
ATOM      8  C   UNL     1     -15.266 -20.176  16.625  0.00  0.00    +0.220 A 
ATOM      9  N   UNL     1     -14.859 -20.607  15.373  0.00  0.00    -0.283 N 
ATOM     36  H   UNL     1     -15.554 -20.770  14.644  0.00  0.00    +0.155 HD
ATOM     37  N   UNL     1     -16.584 -19.968  16.827  0.00  0.00    -0.214 NA
BRANCH   4   3
ATOM      1  C   UNL     1     -20.934 -20.149  17.948  0.00  0.00    +0.020 A 
ATOM      2  C   UNL     1     -19.513 -20.391  17.841  0.00  0.00    +0.013 A 
ATOM      3  C   UNL     1     -18.554 -19.333  18.131  0.00  0.00    +0.019 A 
ATOM     38  C   UNL     1     -19.069 -18.032  18.531  0.00  0.00    +0.120 A 
ATOM     39  N   UNL     1     -20.442 -17.828  18.623  0.00  0.00    -0.263 NA
ATOM     40  C   UNL     1     -21.375 -18.838  18.345  0.00  0.00    +0.111 A 
ENDBRANCH   4   3
ENDBRANCH  10   9
BRANCH  12  13
ATOM     13  N   UNL     1     -10.250 -18.795  14.888  0.00  0.00    -0.281 N 
ATOM     14  C   UNL     1     -10.184 -17.748  15.792  0.00  0.00    +0.248 C 
ATOM     30  O   UNL     1     -11.066 -17.466  16.589  0.00  0.00    -0.270 OA
ATOM     31  H   UNL     1      -9.541 -18.801  14.156  0.00  0.00    +0.155 HD
BRANCH  14  15
ATOM     15  C   UNL     1      -8.967 -16.880  15.803  0.00  0.00    +0.037 A 
ATOM     16  C   UNL     1      -8.364 -16.401  14.557  0.00  0.00    +0.013 A 
ATOM     17  C   UNL     1      -7.181 -15.579  14.595  0.00  0.00    +0.005 A 
ATOM     18  C   UNL     1      -6.593 -15.229  15.886  0.00  0.00    -0.033 A 
ATOM     28  C   UNL     1      -7.215 -15.713  17.107  0.00  0.00    +0.005 A 
ATOM     29  C   UNL     1      -8.374 -16.520  17.074  0.00  0.00    +0.013 A 
BRANCH  18  19
ATOM     19  C   UNL     1      -5.319 -14.374  16.021  0.00  0.00    +0.119 C 
BRANCH  19  20
ATOM     20  N   UNL     1      -4.045 -14.960  15.508  0.00  0.00    -0.302 NA
ATOM     21  C   UNL     1      -3.642 -16.221  16.277  0.00  0.00    +0.066 C 
ATOM     22  C   UNL     1      -2.319 -16.834  15.713  0.00  0.00    -0.064 C 
ATOM     23  N   UNL     1      -1.208 -15.785  15.773  0.00  0.00    +0.379 N 
ATOM     24  C   UNL     1       0.051 -16.376  15.298  0.00  0.00    -0.096 C 
ATOM     25  H   UNL     1      -1.067 -15.503  16.843  0.00  0.00    -0.082 HD
ATOM     26  C   UNL     1      -1.601 -14.526  15.013  0.00  0.00    -0.064 C 
ATOM     27  C   UNL     1      -2.933 -13.942  15.562  0.00  0.00    +0.066 C 
ENDBRANCH  19  20
ENDBRANCH  18  19
ENDBRANCH  14  15
ENDBRANCH  12  13
TORSDOF 6
ENDMDL
MODEL 4
REMARK VINA RESULT:      -9.5      3.800     15.614
REMARK  Name = C:\Users\Docking\Desktop\test protocol\1iep_ligandH.pdb
REMARK  8 active torsions:
REMARK  status: ('A' for Active; 'I' for Inactive)
REMARK    1  A    between atoms: _5  and  _11
REMARK    2  A    between atoms: _19  and  _21
REMARK    3  A    between atoms: _22  and  _66
REMARK    4  A    between atoms: _27  and  _30
REMARK    5  A    between atoms: _32  and  _33
REMARK    6  A    between atoms: _38  and  _43
REMARK    7  A    between atoms: _43  and  _46
REMARK    8  A    between atoms: _53  and  _55
REMARK                            x       y       z     vdW  Elec       q    Type
REMARK                         _______ _______ _______ _____ _____    ______ ____
ROOT
ATOM     10  C   UNL     1      -9.595 -22.802  13.376  0.00  0.00    +0.038 A 
ATOM     11  C   UNL     1     -10.893 -22.628  13.919  0.00  0.00    +0.047 A 
ATOM     12  C   UNL     1     -11.536 -21.323  13.930  0.00  0.00    +0.035 A 
ATOM     32  C   UNL     1     -10.828 -20.216  13.377  0.00  0.00    +0.024 A 
ATOM     33  C   UNL     1      -9.507 -20.375  12.822  0.00  0.00    +0.007 A 
ATOM     34  C   UNL     1      -8.867 -21.659  12.811  0.00  0.00    -0.029 A 
ATOM     35  C   UNL     1      -7.447 -21.769  12.208  0.00  0.00    +0.045 C 
ENDROOT
BRANCH  10   9
ATOM      4  C   UNL     1      -8.671 -27.049  11.340  0.00  0.00    +0.077 A 
ATOM      5  C   UNL     1      -9.408 -26.708  10.157  0.00  0.00    +0.048 A 
ATOM      6  C   UNL     1     -10.015 -25.433  10.115  0.00  0.00    +0.116 A 
ATOM      7  N   UNL     1      -9.889 -24.571  11.182  0.00  0.00    -0.223 NA
ATOM      8  C   UNL     1      -9.173 -24.931  12.309  0.00  0.00    +0.220 A 
ATOM      9  N   UNL     1      -9.025 -24.077  13.391  0.00  0.00    -0.283 N 
ATOM     36  H   UNL     1      -8.496 -24.383  14.207  0.00  0.00    +0.155 HD
ATOM     37  N   UNL     1      -8.584 -26.144  12.374  0.00  0.00    -0.214 NA
BRANCH   4   3
ATOM      1  C   UNL     1      -7.740 -30.636  12.590  0.00  0.00    +0.020 A 
ATOM      2  C   UNL     1      -8.455 -29.389  12.441  0.00  0.00    +0.013 A 
ATOM      3  C   UNL     1      -7.970 -28.357  11.533  0.00  0.00    +0.019 A 
ATOM     38  C   UNL     1      -6.751 -28.621  10.784  0.00  0.00    +0.120 A 
ATOM     39  N   UNL     1      -6.083 -29.831  10.949  0.00  0.00    -0.263 NA
ATOM     40  C   UNL     1      -6.539 -30.830  11.822  0.00  0.00    +0.111 A 
ENDBRANCH   4   3
ENDBRANCH  10   9
BRANCH  12  13
ATOM     13  N   UNL     1     -12.849 -21.084  14.475  0.00  0.00    -0.281 N 
ATOM     14  C   UNL     1     -14.074 -21.254  13.851  0.00  0.00    +0.248 C 
ATOM     30  O   UNL     1     -14.219 -21.434  12.651  0.00  0.00    -0.270 OA
ATOM     31  H   UNL     1     -12.880 -20.750  15.438  0.00  0.00    +0.155 HD
BRANCH  14  15
ATOM     15  C   UNL     1     -15.319 -21.201  14.676  0.00  0.00    +0.037 A 
ATOM     16  C   UNL     1     -15.422 -20.317  15.840  0.00  0.00    +0.013 A 
ATOM     17  C   UNL     1     -16.628 -20.299  16.629  0.00  0.00    +0.005 A 
ATOM     18  C   UNL     1     -17.743 -21.166  16.255  0.00  0.00    -0.033 A 
ATOM     28  C   UNL     1     -17.615 -22.029  15.092  0.00  0.00    +0.005 A 
ATOM     29  C   UNL     1     -16.434 -22.051  14.317  0.00  0.00    +0.013 A 
BRANCH  18  19
ATOM     19  C   UNL     1     -19.059 -21.227  17.052  0.00  0.00    +0.119 C 
BRANCH  19  20
ATOM     20  N   UNL     1     -19.412 -20.036  17.881  0.00  0.00    -0.302 NA
ATOM     21  C   UNL     1     -18.978 -20.202  19.340  0.00  0.00    +0.066 C 
ATOM     22  C   UNL     1     -19.335 -18.938  20.188  0.00  0.00    -0.064 C 
ATOM     23  N   UNL     1     -20.839 -18.675  20.097  0.00  0.00    +0.379 N 
ATOM     24  C   UNL     1     -21.187 -17.522  20.940  0.00  0.00    -0.096 C 
ATOM     25  H   UNL     1     -21.364 -19.567  20.512  0.00  0.00    -0.082 HD
ATOM     26  C   UNL     1     -21.280 -18.511  18.650  0.00  0.00    -0.064 C 
ATOM     27  C   UNL     1     -20.894 -19.760  17.810  0.00  0.00    +0.066 C 
ENDBRANCH  19  20
ENDBRANCH  18  19
ENDBRANCH  14  15
ENDBRANCH  12  13
TORSDOF 6
ENDMDL
MODEL 5
REMARK VINA RESULT:      -9.5      8.530     14.156
REMARK  Name = C:\Users\Docking\Desktop\test protocol\1iep_ligandH.pdb
REMARK  8 active torsions:
REMARK  status: ('A' for Active; 'I' for Inactive)
REMARK    1  A    between atoms: _5  and  _11
REMARK    2  A    between atoms: _19  and  _21
REMARK    3  A    between atoms: _22  and  _66
REMARK    4  A    between atoms: _27  and  _30
REMARK    5  A    between atoms: _32  and  _33
REMARK    6  A    between atoms: _38  and  _43
REMARK    7  A    between atoms: _43  and  _46
REMARK    8  A    between atoms: _53  and  _55
REMARK                            x       y       z     vdW  Elec       q    Type
REMARK                         _______ _______ _______ _____ _____    ______ ____
ROOT
ATOM     10  C   UNL     1     -11.575 -21.199  15.085  0.00  0.00    +0.038 A 
ATOM     11  C   UNL     1     -10.521 -20.253  15.164  0.00  0.00    +0.047 A 
ATOM     12  C   UNL     1     -10.764 -18.891  15.613  0.00  0.00    +0.035 A 
ATOM     32  C   UNL     1     -12.094 -18.527  15.976  0.00  0.00    +0.024 A 
ATOM     33  C   UNL     1     -13.177 -19.475  15.900  0.00  0.00    +0.007 A 
ATOM     34  C   UNL     1     -12.943 -20.819  15.456  0.00  0.00    -0.029 A 
ATOM     35  C   UNL     1     -14.144 -21.792  15.388  0.00  0.00    +0.045 C 
ENDROOT
BRANCH  10   9
ATOM      4  C   UNL     1     -10.008 -24.294  11.768  0.00  0.00    +0.077 A 
ATOM      5  C   UNL     1      -9.774 -23.246  10.816  0.00  0.00    +0.048 A 
ATOM      6  C   UNL     1     -10.076 -21.926  11.217  0.00  0.00    +0.116 A 
ATOM      7  N   UNL     1     -10.575 -21.682  12.478  0.00  0.00    -0.223 NA
ATOM      8  C   UNL     1     -10.791 -22.716  13.371  0.00  0.00    +0.220 A 
ATOM      9  N   UNL     1     -11.284 -22.493  14.648  0.00  0.00    -0.283 N 
ATOM     36  H   UNL     1     -11.437 -23.283  15.274  0.00  0.00    +0.155 HD
ATOM     37  N   UNL     1     -10.512 -23.986  13.012  0.00  0.00    -0.214 NA
BRANCH   4   3
ATOM      1  C   UNL     1      -9.973 -27.838  10.113  0.00  0.00    +0.020 A 
ATOM      2  C   UNL     1     -10.267 -26.440  10.331  0.00  0.00    +0.013 A 
ATOM      3  C   UNL     1      -9.735 -25.740  11.494  0.00  0.00    +0.019 A 
ATOM     38  C   UNL     1      -8.902 -26.488  12.423  0.00  0.00    +0.120 A 
ATOM     39  N   UNL     1      -8.637 -27.834  12.187  0.00  0.00    -0.263 NA
ATOM     40  C   UNL     1      -9.145 -28.519  11.073  0.00  0.00    +0.111 A 
ENDBRANCH   4   3
ENDBRANCH  10   9
BRANCH  12  13
ATOM     13  N   UNL     1      -9.736 -17.885  15.706  0.00  0.00    -0.281 N 
ATOM     14  C   UNL     1      -9.018 -17.502  16.828  0.00  0.00    +0.248 C 
ATOM     30  O   UNL     1      -9.304 -17.820  17.973  0.00  0.00    -0.270 OA
ATOM     31  H   UNL     1      -9.508 -17.396  14.840  0.00  0.00    +0.155 HD
BRANCH  14  15
ATOM     15  C   UNL     1      -7.819 -16.628  16.654  0.00  0.00    +0.037 A 
ATOM     16  C   UNL     1      -7.573 -15.915  15.397  0.00  0.00    +0.013 A 
ATOM     17  C   UNL     1      -6.399 -15.092  15.250  0.00  0.00    +0.005 A 
ATOM     18  C   UNL     1      -5.462 -14.975  16.364  0.00  0.00    -0.033 A 
ATOM     28  C   UNL     1      -5.732 -15.689  17.602  0.00  0.00    +0.005 A 
ATOM     29  C   UNL     1      -6.881 -16.498  17.749  0.00  0.00    +0.013 A 
BRANCH  18  19
ATOM     19  C   UNL     1      -4.173 -14.136  16.289  0.00  0.00    +0.119 C 
BRANCH  19  20
ATOM     20  N   UNL     1      -2.875 -14.874  16.299  0.00  0.00    -0.302 NA
ATOM     21  C   UNL     1      -1.727 -14.025  15.744  0.00  0.00    +0.066 C 
ATOM     22  C   UNL     1      -0.372 -14.805  15.783  0.00  0.00    -0.064 C 
ATOM     23  N   UNL     1      -0.514 -16.106  14.993  0.00  0.00    +0.379 N 
ATOM     24  C   UNL     1       0.775 -16.814  14.978  0.00  0.00    -0.096 C 
ATOM     25  H   UNL     1      -0.764 -15.837  13.940  0.00  0.00    -0.082 HD
ATOM     26  C   UNL     1      -1.654 -16.955  15.535  0.00  0.00    -0.064 C 
ATOM     27  C   UNL     1      -2.990 -16.161  15.520  0.00  0.00    +0.066 C 
ENDBRANCH  19  20
ENDBRANCH  18  19
ENDBRANCH  14  15
ENDBRANCH  12  13
TORSDOF 6
ENDMDL
