MODEL 1
REMARK VINA RESULT:      -8.2      0.000      0.000
REMARK  Name = C:\Users\Docking\Desktop\test protocol\1iep_ligandH.pdb
REMARK  8 active torsions:
REMARK  status: ('A' for Active; 'I' for Inactive)
REMARK    1  A    between atoms: _5  and  _11
REMARK    2  A    between atoms: _19  and  _21
REMARK    3  A    between atoms: _22  and  _66
REMARK    4  A    between atoms: _27  and  _30
REMARK    5  A    between atoms: _32  and  _33
REMARK    6  A    between atoms: _38  and  _43
REMARK    7  A    between atoms: _43  and  _46
REMARK    8  A    between atoms: _53  and  _55
REMARK                            x       y       z     vdW  Elec       q    Type
REMARK                         _______ _______ _______ _____ _____    ______ ____
ROOT
ATOM     10  C   UNL     1      15.116 -20.090   3.092  0.00  0.00    +0.038 A 
ATOM     11  C   UNL     1      14.240 -19.313   2.292  0.00  0.00    +0.047 A 
ATOM     12  C   UNL     1      13.386 -18.294   2.883  0.00  0.00    +0.035 A 
ATOM     32  C   UNL     1      13.452 -18.092   4.292  0.00  0.00    +0.024 A 
ATOM     33  C   UNL     1      14.336 -18.874   5.121  0.00  0.00    +0.007 A 
ATOM     34  C   UNL     1      15.178 -19.882   4.543  0.00  0.00    -0.029 A 
ATOM     35  C   UNL     1      16.102 -20.695   5.480  0.00  0.00    +0.045 C 
ENDROOT
BRANCH  10   9
ATOM      4  C   UNL     1      16.095 -24.629   1.876  0.00  0.00    +0.077 A 
ATOM      5  C   UNL     1      14.934 -25.124   2.557  0.00  0.00    +0.048 A 
ATOM      6  C   UNL     1      14.114 -24.179   3.214  0.00  0.00    +0.116 A 
ATOM      7  N   UNL     1      14.441 -22.841   3.185  0.00  0.00    -0.223 NA
ATOM      8  C   UNL     1      15.570 -22.397   2.520  0.00  0.00    +0.220 A 
ATOM      9  N   UNL     1      15.913 -21.055   2.471  0.00  0.00    -0.283 N 
ATOM     36  H   UNL     1      16.758 -20.768   1.977  0.00  0.00    +0.155 HD
ATOM     37  N   UNL     1      16.369 -23.280   1.887  0.00  0.00    -0.214 NA
BRANCH   4   3
ATOM      1  C   UNL     1      18.513 -27.553   0.924  0.00  0.00    +0.020 A 
ATOM      2  C   UNL     1      17.587 -26.745   1.683  0.00  0.00    +0.013 A 
ATOM      3  C   UNL     1      17.058 -25.503   1.133  0.00  0.00    +0.019 A 
ATOM     38  C   UNL     1      17.488 -25.105  -0.198  0.00  0.00    +0.120 A 
ATOM     39  N   UNL     1      18.383 -25.903  -0.905  0.00  0.00    -0.263 NA
ATOM     40  C   UNL     1      18.900 -27.098  -0.385  0.00  0.00    +0.111 A 
ENDBRANCH   4   3
ENDBRANCH  10   9
BRANCH  12  13
ATOM     13  N   UNL     1      12.471 -17.480   2.123  0.00  0.00    -0.281 N 
ATOM     14  C   UNL     1      12.557 -16.123   1.858  0.00  0.00    +0.248 C 
ATOM     30  O   UNL     1      13.327 -15.357   2.417  0.00  0.00    -0.270 OA
ATOM     31  H   UNL     1      11.661 -17.962   1.732  0.00  0.00    +0.155 HD
BRANCH  14  15
ATOM     15  C   UNL     1      11.645 -15.528   0.833  0.00  0.00    +0.037 A 
ATOM     16  C   UNL     1      11.773 -14.127   0.425  0.00  0.00    +0.013 A 
ATOM     17  C   UNL     1      10.870 -13.573  -0.553  0.00  0.00    +0.005 A 
ATOM     18  C   UNL     1       9.831 -14.423  -1.130  0.00  0.00    -0.033 A 
ATOM     28  C   UNL     1       9.730 -15.811  -0.711  0.00  0.00    +0.005 A 
ATOM     29  C   UNL     1      10.613 -16.357   0.248  0.00  0.00    +0.013 A 
BRANCH  18  19
ATOM     19  C   UNL     1       8.811 -13.911  -2.164  0.00  0.00    +0.119 C 
BRANCH  19  20
ATOM     20  N   UNL     1       8.608 -14.737  -3.392  0.00  0.00    -0.302 NA
ATOM     21  C   UNL     1       9.920 -14.984  -4.141  0.00  0.00    +0.066 C 
ATOM     22  C   UNL     1       9.694 -15.868  -5.411  0.00  0.00    -0.064 C 
ATOM     23  N   UNL     1       8.668 -15.193  -6.322  0.00  0.00    +0.379 N 
ATOM     24  C   UNL     1       8.495 -15.993  -7.544  0.00  0.00    -0.096 C 
ATOM     25  H   UNL     1       9.082 -14.203  -6.622  0.00  0.00    -0.082 HD
ATOM     26  C   UNL     1       7.361 -14.942  -5.584  0.00  0.00    -0.064 C 
ATOM     27  C   UNL     1       7.602 -14.087  -4.309  0.00  0.00    +0.066 C 
ENDBRANCH  19  20
ENDBRANCH  18  19
ENDBRANCH  14  15
ENDBRANCH  12  13
TORSDOF 6
ENDMDL
MODEL 2
REMARK VINA RESULT:      -8.0      9.528     14.408
REMARK  Name = C:\Users\Docking\Desktop\test protocol\1iep_ligandH.pdb
REMARK  8 active torsions:
REMARK  status: ('A' for Active; 'I' for Inactive)
REMARK    1  A    between atoms: _5  and  _11
REMARK    2  A    between atoms: _19  and  _21
REMARK    3  A    between atoms: _22  and  _66
REMARK    4  A    between atoms: _27  and  _30
REMARK    5  A    between atoms: _32  and  _33
REMARK    6  A    between atoms: _38  and  _43
REMARK    7  A    between atoms: _43  and  _46
REMARK    8  A    between atoms: _53  and  _55
REMARK                            x       y       z     vdW  Elec       q    Type
REMARK                         _______ _______ _______ _____ _____    ______ ____
ROOT
ATOM     10  C   UNL     1       7.793 -14.919  -4.826  0.00  0.00    +0.038 A 
ATOM     11  C   UNL     1       6.857 -14.921  -5.891  0.00  0.00    +0.047 A 
ATOM     12  C   UNL     1       7.001 -15.827  -7.019  0.00  0.00    +0.035 A 
ATOM     32  C   UNL     1       8.112 -16.721  -7.030  0.00  0.00    +0.024 A 
ATOM     33  C   UNL     1       9.074 -16.733  -5.956  0.00  0.00    +0.007 A 
ATOM     34  C   UNL     1       8.937 -15.839  -4.841  0.00  0.00    -0.029 A 
ATOM     35  C   UNL     1      10.003 -15.890  -3.722  0.00  0.00    +0.045 C 
ENDROOT
BRANCH  10   9
ATOM      4  C   UNL     1       8.870 -10.898  -2.438  0.00  0.00    +0.077 A 
ATOM      5  C   UNL     1       9.913 -10.558  -3.362  0.00  0.00    +0.048 A 
ATOM      6  C   UNL     1      10.145 -11.448  -4.435  0.00  0.00    +0.116 A 
ATOM      7  N   UNL     1       9.385 -12.590  -4.563  0.00  0.00    -0.223 NA
ATOM      8  C   UNL     1       8.388 -12.889  -3.653  0.00  0.00    +0.220 A 
ATOM      9  N   UNL     1       7.606 -14.028  -3.767  0.00  0.00    -0.283 N 
ATOM     36  H   UNL     1       6.885 -14.217  -3.071  0.00  0.00    +0.155 HD
ATOM     37  N   UNL     1       8.147 -12.056  -2.619  0.00  0.00    -0.214 NA
BRANCH   4   3
ATOM      1  C   UNL     1       8.349  -7.850  -0.042  0.00  0.00    +0.020 A 
ATOM      2  C   UNL     1       8.723  -8.616  -1.208  0.00  0.00    +0.013 A 
ATOM      3  C   UNL     1       8.502 -10.056  -1.255  0.00  0.00    +0.019 A 
ATOM     38  C   UNL     1       7.896 -10.695  -0.097  0.00  0.00    +0.120 A 
ATOM     39  N   UNL     1       7.548  -9.931   1.013  0.00  0.00    -0.263 NA
ATOM     40  C   UNL     1       7.757  -8.545   1.070  0.00  0.00    +0.111 A 
ENDBRANCH   4   3
ENDBRANCH  10   9
BRANCH  12  13
ATOM     13  N   UNL     1       6.087 -15.869  -8.133  0.00  0.00    -0.281 N 
ATOM     14  C   UNL     1       4.705 -15.969  -8.097  0.00  0.00    +0.248 C 
ATOM     30  O   UNL     1       4.059 -16.255  -7.101  0.00  0.00    -0.270 OA
ATOM     31  H   UNL     1       6.508 -15.817  -9.060  0.00  0.00    +0.155 HD
BRANCH  14  15
ATOM     15  C   UNL     1       3.931 -15.731  -9.354  0.00  0.00    +0.037 A 
ATOM     16  C   UNL     1       4.376 -16.283 -10.636  0.00  0.00    +0.013 A 
ATOM     17  C   UNL     1       3.620 -16.024 -11.836  0.00  0.00    +0.005 A 
ATOM     18  C   UNL     1       2.409 -15.210 -11.758  0.00  0.00    -0.033 A 
ATOM     28  C   UNL     1       1.988 -14.680 -10.472  0.00  0.00    +0.005 A 
ATOM     29  C   UNL     1       2.727 -14.931  -9.294  0.00  0.00    +0.013 A 
BRANCH  18  19
ATOM     19  C   UNL     1       1.552 -14.866 -12.990  0.00  0.00    +0.119 C 
BRANCH  19  20
ATOM     20  N   UNL     1       2.080 -13.823 -13.920  0.00  0.00    -0.302 NA
ATOM     21  C   UNL     1       1.315 -12.502 -13.794  0.00  0.00    +0.066 C 
ATOM     22  C   UNL     1       1.895 -11.415 -14.758  0.00  0.00    -0.064 C 
ATOM     23  N   UNL     1       1.846 -11.935 -16.196  0.00  0.00    +0.379 N 
ATOM     24  C   UNL     1       2.336 -10.893 -17.110  0.00  0.00    -0.096 C 
ATOM     25  H   UNL     1       0.778 -12.131 -16.448  0.00  0.00    -0.082 HD
ATOM     26  C   UNL     1       2.601 -13.250 -16.329  0.00  0.00    -0.064 C 
ATOM     27  C   UNL     1       2.037 -14.313 -15.346  0.00  0.00    +0.066 C 
ENDBRANCH  19  20
ENDBRANCH  18  19
ENDBRANCH  14  15
ENDBRANCH  12  13
TORSDOF 6
ENDMDL
MODEL 3
REMARK VINA RESULT:      -8.0      2.200      3.066
REMARK  Name = C:\Users\Docking\Desktop\test protocol\1iep_ligandH.pdb
REMARK  8 active torsions:
REMARK  status: ('A' for Active; 'I' for Inactive)
REMARK    1  A    between atoms: _5  and  _11
REMARK    2  A    between atoms: _19  and  _21
REMARK    3  A    between atoms: _22  and  _66
REMARK    4  A    between atoms: _27  and  _30
REMARK    5  A    between atoms: _32  and  _33
REMARK    6  A    between atoms: _38  and  _43
REMARK    7  A    between atoms: _43  and  _46
REMARK    8  A    between atoms: _53  and  _55
REMARK                            x       y       z     vdW  Elec       q    Type
REMARK                         _______ _______ _______ _____ _____    ______ ____
ROOT
ATOM     10  C   UNL     1      15.241 -20.384   2.839  0.00  0.00    +0.038 A 
ATOM     11  C   UNL     1      14.415 -19.646   1.954  0.00  0.00    +0.047 A 
ATOM     12  C   UNL     1      13.536 -18.596   2.444  0.00  0.00    +0.035 A 
ATOM     32  C   UNL     1      13.525 -18.321   3.842  0.00  0.00    +0.024 A 
ATOM     33  C   UNL     1      14.358 -19.062   4.757  0.00  0.00    +0.007 A 
ATOM     34  C   UNL     1      15.225 -20.101   4.280  0.00  0.00    -0.029 A 
ATOM     35  C   UNL     1      16.091 -20.867   5.307  0.00  0.00    +0.045 C 
ENDROOT
BRANCH  10   9
ATOM      4  C   UNL     1      16.220 -24.975   1.840  0.00  0.00    +0.077 A 
ATOM      5  C   UNL     1      14.997 -25.428   2.438  0.00  0.00    +0.048 A 
ATOM      6  C   UNL     1      14.147 -24.447   2.998  0.00  0.00    +0.116 A 
ATOM      7  N   UNL     1      14.503 -23.117   2.957  0.00  0.00    -0.223 NA
ATOM      8  C   UNL     1      15.691 -22.715   2.374  0.00  0.00    +0.220 A 
ATOM      9  N   UNL     1      16.066 -21.381   2.315  0.00  0.00    -0.283 N 
ATOM     36  H   UNL     1      16.954 -21.126   1.883  0.00  0.00    +0.155 HD
ATOM     37  N   UNL     1      16.520 -23.631   1.834  0.00  0.00    -0.214 NA
BRANCH   4   3
ATOM      1  C   UNL     1      18.701 -27.932   1.206  0.00  0.00    +0.020 A 
ATOM      2  C   UNL     1      17.736 -27.082   1.865  0.00  0.00    +0.013 A 
ATOM      3  C   UNL     1      17.220 -25.889   1.204  0.00  0.00    +0.019 A 
ATOM     38  C   UNL     1      17.704 -25.583  -0.133  0.00  0.00    +0.120 A 
ATOM     39  N   UNL     1      18.635 -26.420  -0.742  0.00  0.00    -0.263 NA
ATOM     40  C   UNL     1      19.140 -27.569  -0.116  0.00  0.00    +0.111 A 
ENDBRANCH   4   3
ENDBRANCH  10   9
BRANCH  12  13
ATOM     13  N   UNL     1      12.668 -17.819   1.593  0.00  0.00    -0.281 N 
ATOM     14  C   UNL     1      11.285 -17.746   1.626  0.00  0.00    +0.248 C 
ATOM     30  O   UNL     1      10.568 -18.507   2.258  0.00  0.00    -0.270 OA
ATOM     31  H   UNL     1      13.130 -17.254   0.880  0.00  0.00    +0.155 HD
BRANCH  14  15
ATOM     15  C   UNL     1      10.599 -16.683   0.831  0.00  0.00    +0.037 A 
ATOM     16  C   UNL     1      11.220 -15.373   0.618  0.00  0.00    +0.013 A 
ATOM     17  C   UNL     1      10.529 -14.359  -0.139  0.00  0.00    +0.005 A 
ATOM     18  C   UNL     1       9.208 -14.653  -0.690  0.00  0.00    -0.033 A 
ATOM     28  C   UNL     1       8.618 -15.962  -0.468  0.00  0.00    +0.005 A 
ATOM     29  C   UNL     1       9.291 -16.958   0.274  0.00  0.00    +0.013 A 
BRANCH  18  19
ATOM     19  C   UNL     1       8.389 -13.624  -1.492  0.00  0.00    +0.119 C 
BRANCH  19  20
ATOM     20  N   UNL     1       8.828 -12.198  -1.425  0.00  0.00    -0.302 NA
ATOM     21  C   UNL     1       8.178 -11.452  -0.257  0.00  0.00    +0.066 C 
ATOM     22  C   UNL     1       8.665  -9.968  -0.187  0.00  0.00    -0.064 C 
ATOM     23  N   UNL     1       8.358  -9.271  -1.514  0.00  0.00    +0.379 N 
ATOM     24  C   UNL     1       8.762  -7.860  -1.432  0.00  0.00    -0.096 C 
ATOM     25  H   UNL     1       7.253  -9.298  -1.662  0.00  0.00    -0.082 HD
ATOM     26  C   UNL     1       8.999 -10.008  -2.681  0.00  0.00    -0.064 C 
ATOM     27  C   UNL     1       8.530 -11.490  -2.723  0.00  0.00    +0.066 C 
ENDBRANCH  19  20
ENDBRANCH  18  19
ENDBRANCH  14  15
ENDBRANCH  12  13
TORSDOF 6
ENDMDL
MODEL 4
REMARK VINA RESULT:      -7.9      2.402     12.306
REMARK  Name = C:\Users\Docking\Desktop\test protocol\1iep_ligandH.pdb
REMARK  8 active torsions:
REMARK  status: ('A' for Active; 'I' for Inactive)
REMARK    1  A    between atoms: _5  and  _11
REMARK    2  A    between atoms: _19  and  _21
REMARK    3  A    between atoms: _22  and  _66
REMARK    4  A    between atoms: _27  and  _30
REMARK    5  A    between atoms: _32  and  _33
REMARK    6  A    between atoms: _38  and  _43
REMARK    7  A    between atoms: _43  and  _46
REMARK    8  A    between atoms: _53  and  _55
REMARK                            x       y       z     vdW  Elec       q    Type
REMARK                         _______ _______ _______ _____ _____    ______ ____
ROOT
ATOM     10  C   UNL     1       8.608 -13.258  -2.964  0.00  0.00    +0.038 A 
ATOM     11  C   UNL     1       9.276 -14.063  -2.006  0.00  0.00    +0.047 A 
ATOM     12  C   UNL     1      10.365 -13.529  -1.203  0.00  0.00    +0.035 A 
ATOM     32  C   UNL     1      10.746 -12.170  -1.399  0.00  0.00    +0.024 A 
ATOM     33  C   UNL     1      10.079 -11.338  -2.370  0.00  0.00    +0.007 A 
ATOM     34  C   UNL     1       9.005 -11.860  -3.166  0.00  0.00    -0.029 A 
ATOM     35  C   UNL     1       8.330 -10.924  -4.196  0.00  0.00    +0.045 C 
ENDROOT
BRANCH  10   9
ATOM      4  C   UNL     1       6.965 -15.820  -6.675  0.00  0.00    +0.077 A 
ATOM      5  C   UNL     1       8.287 -16.031  -7.191  0.00  0.00    +0.048 A 
ATOM      6  C   UNL     1       9.361 -15.457  -6.476  0.00  0.00    +0.116 A 
ATOM      7  N   UNL     1       9.121 -14.729  -5.331  0.00  0.00    -0.223 NA
ATOM      8  C   UNL     1       7.833 -14.544  -4.861  0.00  0.00    +0.220 A 
ATOM      9  N   UNL     1       7.569 -13.822  -3.707  0.00  0.00    -0.283 N 
ATOM     36  H   UNL     1       6.604 -13.702  -3.398  0.00  0.00    +0.155 HD
ATOM     37  N   UNL     1       6.790 -15.080  -5.527  0.00  0.00    -0.214 NA
BRANCH   4   3
ATOM      1  C   UNL     1       4.166 -16.654  -9.277  0.00  0.00    +0.020 A 
ATOM      2  C   UNL     1       5.373 -16.102  -8.706  0.00  0.00    +0.013 A 
ATOM      3  C   UNL     1       5.727 -16.366  -7.317  0.00  0.00    +0.019 A 
ATOM     38  C   UNL     1       4.832 -17.198  -6.527  0.00  0.00    +0.120 A 
ATOM     39  N   UNL     1       3.675 -17.714  -7.104  0.00  0.00    -0.263 NA
ATOM     40  C   UNL     1       3.324 -17.466  -8.439  0.00  0.00    +0.111 A 
ENDBRANCH   4   3
ENDBRANCH  10   9
BRANCH  12  13
ATOM     13  N   UNL     1      11.085 -14.301  -0.220  0.00  0.00    -0.281 N 
ATOM     14  C   UNL     1      10.565 -15.091   0.791  0.00  0.00    +0.248 C 
ATOM     30  O   UNL     1       9.393 -15.084   1.140  0.00  0.00    -0.270 OA
ATOM     31  H   UNL     1      12.103 -14.260  -0.278  0.00  0.00    +0.155 HD
BRANCH  14  15
ATOM     15  C   UNL     1      11.480 -16.011   1.533  0.00  0.00    +0.037 A 
ATOM     16  C   UNL     1      11.044 -17.348   1.943  0.00  0.00    +0.013 A 
ATOM     17  C   UNL     1      11.941 -18.209   2.672  0.00  0.00    +0.005 A 
ATOM     18  C   UNL     1      13.285 -17.735   2.994  0.00  0.00    -0.033 A 
ATOM     28  C   UNL     1      13.693 -16.406   2.570  0.00  0.00    +0.005 A 
ATOM     29  C   UNL     1      12.816 -15.559   1.856  0.00  0.00    +0.013 A 
BRANCH  18  19
ATOM     19  C   UNL     1      14.302 -18.578   3.787  0.00  0.00    +0.119 C 
BRANCH  19  20
ATOM     20  N   UNL     1      14.397 -20.030   3.450  0.00  0.00    -0.302 NA
ATOM     21  C   UNL     1      15.583 -20.705   4.144  0.00  0.00    +0.066 C 
ATOM     22  C   UNL     1      15.654 -22.228   3.798  0.00  0.00    -0.064 C 
ATOM     23  N   UNL     1      15.746 -22.400   2.281  0.00  0.00    +0.379 N 
ATOM     24  C   UNL     1      15.871 -23.828   1.956  0.00  0.00    -0.096 C 
ATOM     25  H   UNL     1      16.677 -21.891   1.939  0.00  0.00    -0.082 HD
ATOM     26  C   UNL     1      14.571 -21.729   1.582  0.00  0.00    -0.064 C 
ATOM     27  C   UNL     1      14.492 -20.223   1.956  0.00  0.00    +0.066 C 
ENDBRANCH  19  20
ENDBRANCH  18  19
ENDBRANCH  14  15
ENDBRANCH  12  13
TORSDOF 6
ENDMDL
MODEL 5
REMARK VINA RESULT:      -7.8     13.472     17.337
REMARK  Name = C:\Users\Docking\Desktop\test protocol\1iep_ligandH.pdb
REMARK  8 active torsions:
REMARK  status: ('A' for Active; 'I' for Inactive)
REMARK    1  A    between atoms: _5  and  _11
REMARK    2  A    between atoms: _19  and  _21
REMARK    3  A    between atoms: _22  and  _66
REMARK    4  A    between atoms: _27  and  _30
REMARK    5  A    between atoms: _32  and  _33
REMARK    6  A    between atoms: _38  and  _43
REMARK    7  A    between atoms: _43  and  _46
REMARK    8  A    between atoms: _53  and  _55
REMARK                            x       y       z     vdW  Elec       q    Type
REMARK                         _______ _______ _______ _____ _____    ______ ____
ROOT
ATOM     10  C   UNL     1      22.490 -29.679  -4.355  0.00  0.00    +0.038 A 
ATOM     11  C   UNL     1      21.664 -30.058  -3.266  0.00  0.00    +0.047 A 
ATOM     12  C   UNL     1      21.581 -29.240  -2.065  0.00  0.00    +0.035 A 
ATOM     32  C   UNL     1      22.350 -28.042  -2.009  0.00  0.00    +0.024 A 
ATOM     33  C   UNL     1      23.196 -27.643  -3.106  0.00  0.00    +0.007 A 
ATOM     34  C   UNL     1      23.284 -28.446  -4.292  0.00  0.00    -0.029 A 
ATOM     35  C   UNL     1      24.212 -27.973  -5.435  0.00  0.00    +0.045 C 
ENDROOT
BRANCH  10   9
ATOM      4  C   UNL     1      24.236 -33.420  -6.803  0.00  0.00    +0.077 A 
ATOM      5  C   UNL     1      25.161 -33.749  -5.756  0.00  0.00    +0.048 A 
ATOM      6  C   UNL     1      25.160 -32.926  -4.608  0.00  0.00    +0.116 A 
ATOM      7  N   UNL     1      24.295 -31.857  -4.523  0.00  0.00    -0.223 NA
ATOM      8  C   UNL     1      23.417 -31.567  -5.551  0.00  0.00    +0.220 A 
ATOM      9  N   UNL     1      22.533 -30.501  -5.483  0.00  0.00    -0.283 N 
ATOM     36  H   UNL     1      21.906 -30.316  -6.266  0.00  0.00    +0.155 HD
ATOM     37  N   UNL     1      23.399 -32.337  -6.659  0.00  0.00    -0.214 NA
BRANCH   4   3
ATOM      1  C   UNL     1      24.843 -36.018  -9.664  0.00  0.00    +0.020 A 
ATOM      2  C   UNL     1      25.003 -35.300  -8.420  0.00  0.00    +0.013 A 
ATOM      3  C   UNL     1      24.114 -34.197  -8.077  0.00  0.00    +0.019 A 
ATOM     38  C   UNL     1      23.065 -33.844  -9.021  0.00  0.00    +0.120 A 
ATOM     39  N   UNL     1      22.935 -34.552 -10.211  0.00  0.00    -0.263 NA
ATOM     40  C   UNL     1      23.786 -35.614 -10.553  0.00  0.00    +0.111 A 
ENDBRANCH   4   3
ENDBRANCH  10   9
BRANCH  12  13
ATOM     13  N   UNL     1      20.766 -29.578  -0.925  0.00  0.00    -0.281 N 
ATOM     14  C   UNL     1      21.045 -30.487   0.083  0.00  0.00    +0.248 C 
ATOM     30  O   UNL     1      21.949 -31.308   0.042  0.00  0.00    -0.270 OA
ATOM     31  H   UNL     1      19.874 -29.087  -0.851  0.00  0.00    +0.155 HD
BRANCH  14  15
ATOM     15  C   UNL     1      20.188 -30.494   1.307  0.00  0.00    +0.037 A 
ATOM     16  C   UNL     1      20.329 -31.536   2.328  0.00  0.00    +0.013 A 
ATOM     17  C   UNL     1      19.477 -31.529   3.491  0.00  0.00    +0.005 A 
ATOM     18  C   UNL     1      18.477 -30.474   3.640  0.00  0.00    -0.033 A 
ATOM     28  C   UNL     1      18.363 -29.450   2.615  0.00  0.00    +0.005 A 
ATOM     29  C   UNL     1      19.195 -29.454   1.473  0.00  0.00    +0.013 A 
BRANCH  18  19
ATOM     19  C   UNL     1      17.512 -30.400   4.838  0.00  0.00    +0.119 C 
BRANCH  19  20
ATOM     20  N   UNL     1      18.080 -30.674   6.192  0.00  0.00    -0.302 NA
ATOM     21  C   UNL     1      16.988 -30.963   7.226  0.00  0.00    +0.066 C 
ATOM     22  C   UNL     1      17.601 -31.269   8.631  0.00  0.00    -0.064 C 
ATOM     23  N   UNL     1      18.468 -30.089   9.074  0.00  0.00    +0.379 N 
ATOM     24  C   UNL     1      19.000 -30.349  10.420  0.00  0.00    -0.096 C 
ATOM     25  H   UNL     1      17.811 -29.192   9.137  0.00  0.00    -0.082 HD
ATOM     26  C   UNL     1      19.555 -29.794   8.050  0.00  0.00    -0.064 C 
ATOM     27  C   UNL     1      18.937 -29.520   6.651  0.00  0.00    +0.066 C 
ENDBRANCH  19  20
ENDBRANCH  18  19
ENDBRANCH  14  15
ENDBRANCH  12  13
TORSDOF 6
ENDMDL
