MODEL 1
REMARK VINA RESULT:      -8.0      0.000      0.000
REMARK  Name = C:\Users\Docking\Desktop\test protocol\1iep_ligandH.pdb
REMARK  8 active torsions:
REMARK  status: ('A' for Active; 'I' for Inactive)
REMARK    1  A    between atoms: _5  and  _11
REMARK    2  A    between atoms: _19  and  _21
REMARK    3  A    between atoms: _22  and  _66
REMARK    4  A    between atoms: _27  and  _30
REMARK    5  A    between atoms: _32  and  _33
REMARK    6  A    between atoms: _38  and  _43
REMARK    7  A    between atoms: _43  and  _46
REMARK    8  A    between atoms: _53  and  _55
REMARK                            x       y       z     vdW  Elec       q    Type
REMARK                         _______ _______ _______ _____ _____    ______ ____
ROOT
ATOM     10  C   UNL     1      23.422   5.936  16.870  0.00  0.00    +0.038 A 
ATOM     11  C   UNL     1      24.795   5.610  17.004  0.00  0.00    +0.047 A 
ATOM     12  C   UNL     1      25.310   5.007  18.224  0.00  0.00    +0.035 A 
ATOM     32  C   UNL     1      24.396   4.747  19.286  0.00  0.00    +0.024 A 
ATOM     33  C   UNL     1      22.997   5.073  19.167  0.00  0.00    +0.007 A 
ATOM     34  C   UNL     1      22.484   5.670  17.967  0.00  0.00    -0.029 A 
ATOM     35  C   UNL     1      20.976   6.005  17.897  0.00  0.00    +0.045 C 
ENDROOT
BRANCH  10   9
ATOM      4  C   UNL     1      22.998   9.663  13.875  0.00  0.00    +0.077 A 
ATOM      5  C   UNL     1      23.688  10.541  14.776  0.00  0.00    +0.048 A 
ATOM      6  C   UNL     1      24.129   9.996  16.002  0.00  0.00    +0.116 A 
ATOM      7  N   UNL     1      23.893   8.670  16.296  0.00  0.00    -0.223 NA
ATOM      8  C   UNL     1      23.223   7.851  15.405  0.00  0.00    +0.220 A 
ATOM      9  N   UNL     1      22.982   6.513  15.676  0.00  0.00    -0.283 N 
ATOM     36  H   UNL     1      22.478   5.944  14.997  0.00  0.00    +0.155 HD
ATOM     37  N   UNL     1      22.791   8.348  14.228  0.00  0.00    -0.214 NA
BRANCH   4   3
ATOM      1  C   UNL     1      20.913   9.855  10.571  0.00  0.00    +0.020 A 
ATOM      2  C   UNL     1      21.383   9.402  11.860  0.00  0.00    +0.013 A 
ATOM      3  C   UNL     1      22.474  10.089  12.539  0.00  0.00    +0.019 A 
ATOM     38  C   UNL     1      23.073  11.241  11.882  0.00  0.00    +0.120 A 
ATOM     39  N   UNL     1      22.601  11.654  10.639  0.00  0.00    -0.263 NA
ATOM     40  C   UNL     1      21.553  10.999   9.976  0.00  0.00    +0.111 A 
ENDBRANCH   4   3
ENDBRANCH  10   9
BRANCH  12  13
ATOM     13  N   UNL     1      26.696   4.661  18.421  0.00  0.00    -0.281 N 
ATOM     14  C   UNL     1      27.599   4.195  17.480  0.00  0.00    +0.248 C 
ATOM     30  O   UNL     1      27.294   3.799  16.365  0.00  0.00    -0.270 OA
ATOM     31  H   UNL     1      27.054   4.774  19.369  0.00  0.00    +0.155 HD
BRANCH  14  15
ATOM     15  C   UNL     1      29.051   4.148  17.834  0.00  0.00    +0.037 A 
ATOM     16  C   UNL     1      30.064   4.757  16.968  0.00  0.00    +0.013 A 
ATOM     17  C   UNL     1      31.459   4.683  17.325  0.00  0.00    +0.005 A 
ATOM     18  C   UNL     1      31.848   3.997  18.554  0.00  0.00    -0.033 A 
ATOM     28  C   UNL     1      30.822   3.406  19.397  0.00  0.00    +0.005 A 
ATOM     29  C   UNL     1      29.454   3.476  19.051  0.00  0.00    +0.013 A 
BRANCH  18  19
ATOM     19  C   UNL     1      33.315   3.851  19.002  0.00  0.00    +0.119 C 
BRANCH  19  20
ATOM     20  N   UNL     1      33.930   2.494  18.897  0.00  0.00    -0.302 NA
ATOM     21  C   UNL     1      34.161   1.860  20.271  0.00  0.00    +0.066 C 
ATOM     22  C   UNL     1      34.784   0.432  20.141  0.00  0.00    -0.064 C 
ATOM     23  N   UNL     1      36.095   0.520  19.358  0.00  0.00    +0.379 N 
ATOM     24  C   UNL     1      36.713  -0.812  19.284  0.00  0.00    -0.096 C 
ATOM     25  H   UNL     1      36.786   1.182  19.929  0.00  0.00    -0.082 HD
ATOM     26  C   UNL     1      35.875   1.152  17.991  0.00  0.00    -0.064 C 
ATOM     27  C   UNL     1      35.228   2.559  18.130  0.00  0.00    +0.066 C 
ENDBRANCH  19  20
ENDBRANCH  18  19
ENDBRANCH  14  15
ENDBRANCH  12  13
TORSDOF 6
ENDMDL
MODEL 2
REMARK VINA RESULT:      -7.9     13.407     17.042
REMARK  Name = C:\Users\Docking\Desktop\test protocol\1iep_ligandH.pdb
REMARK  8 active torsions:
REMARK  status: ('A' for Active; 'I' for Inactive)
REMARK    1  A    between atoms: _5  and  _11
REMARK    2  A    between atoms: _19  and  _21
REMARK    3  A    between atoms: _22  and  _66
REMARK    4  A    between atoms: _27  and  _30
REMARK    5  A    between atoms: _32  and  _33
REMARK    6  A    between atoms: _38  and  _43
REMARK    7  A    between atoms: _43  and  _46
REMARK    8  A    between atoms: _53  and  _55
REMARK                            x       y       z     vdW  Elec       q    Type
REMARK                         _______ _______ _______ _____ _____    ______ ____
ROOT
ATOM     10  C   UNL     1      16.025  -1.176  12.003  0.00  0.00    +0.038 A 
ATOM     11  C   UNL     1      15.831  -2.442  12.612  0.00  0.00    +0.047 A 
ATOM     12  C   UNL     1      15.335  -3.576  11.848  0.00  0.00    +0.035 A 
ATOM     32  C   UNL     1      15.049  -3.386  10.464  0.00  0.00    +0.024 A 
ATOM     33  C   UNL     1      15.239  -2.105   9.830  0.00  0.00    +0.007 A 
ATOM     34  C   UNL     1      15.726  -0.982  10.579  0.00  0.00    -0.029 A 
ATOM     35  C   UNL     1      15.905   0.369   9.848  0.00  0.00    +0.045 C 
ENDROOT
BRANCH  10   9
ATOM      4  C   UNL     1      15.348   2.636  14.841  0.00  0.00    +0.077 A 
ATOM      5  C   UNL     1      13.921   2.534  14.737  0.00  0.00    +0.048 A 
ATOM      6  C   UNL     1      13.401   1.491  13.938  0.00  0.00    +0.116 A 
ATOM      7  N   UNL     1      14.255   0.620  13.295  0.00  0.00    -0.223 NA
ATOM      8  C   UNL     1      15.626   0.748  13.415  0.00  0.00    +0.220 A 
ATOM      9  N   UNL     1      16.503  -0.121  12.784  0.00  0.00    -0.283 N 
ATOM     36  H   UNL     1      17.508   0.011  12.891  0.00  0.00    +0.155 HD
ATOM     37  N   UNL     1      16.147   1.736  14.171  0.00  0.00    -0.214 NA
BRANCH   4   3
ATOM      1  C   UNL     1      16.740   6.065  16.107  0.00  0.00    +0.020 A 
ATOM      2  C   UNL     1      16.049   5.094  15.290  0.00  0.00    +0.013 A 
ATOM      3  C   UNL     1      16.049   3.682  15.651  0.00  0.00    +0.019 A 
ATOM     38  C   UNL     1      16.763   3.282  16.854  0.00  0.00    +0.120 A 
ATOM     39  N   UNL     1      17.421   4.239  17.620  0.00  0.00    -0.263 NA
ATOM     40  C   UNL     1      17.430   5.600  17.282  0.00  0.00    +0.111 A 
ENDBRANCH   4   3
ENDBRANCH  10   9
BRANCH  12  13
ATOM     13  N   UNL     1      15.111  -4.883  12.413  0.00  0.00    -0.281 N 
ATOM     14  C   UNL     1      15.868  -6.030  12.235  0.00  0.00    +0.248 C 
ATOM     30  O   UNL     1      16.737  -6.159  11.386  0.00  0.00    -0.270 OA
ATOM     31  H   UNL     1      14.295  -4.975  13.019  0.00  0.00    +0.155 HD
BRANCH  14  15
ATOM     15  C   UNL     1      15.612  -7.209  13.117  0.00  0.00    +0.037 A 
ATOM     16  C   UNL     1      14.248  -7.654  13.414  0.00  0.00    +0.013 A 
ATOM     17  C   UNL     1      14.029  -8.784  14.282  0.00  0.00    +0.005 A 
ATOM     18  C   UNL     1      15.178  -9.477  14.859  0.00  0.00    -0.033 A 
ATOM     28  C   UNL     1      16.520  -9.017  14.544  0.00  0.00    +0.005 A 
ATOM     29  C   UNL     1      16.739  -7.910  13.694  0.00  0.00    +0.013 A 
BRANCH  18  19
ATOM     19  C   UNL     1      15.038 -10.678  15.813  0.00  0.00    +0.119 C 
BRANCH  19  20
ATOM     20  N   UNL     1      14.080 -10.540  16.950  0.00  0.00    -0.302 NA
ATOM     21  C   UNL     1      14.443  -9.369  17.868  0.00  0.00    +0.066 C 
ATOM     22  C   UNL     1      13.418  -9.225  19.039  0.00  0.00    -0.064 C 
ATOM     23  N   UNL     1      13.362 -10.535  19.828  0.00  0.00    +0.379 N 
ATOM     24  C   UNL     1      12.443 -10.384  20.965  0.00  0.00    -0.096 C 
ATOM     25  H   UNL     1      14.381 -10.725  20.240  0.00  0.00    -0.082 HD
ATOM     26  C   UNL     1      13.005 -11.705  18.923  0.00  0.00    -0.064 C 
ATOM     27  C   UNL     1      14.013 -11.821  17.746  0.00  0.00    +0.066 C 
ENDBRANCH  19  20
ENDBRANCH  18  19
ENDBRANCH  14  15
ENDBRANCH  12  13
TORSDOF 6
ENDMDL
MODEL 3
REMARK VINA RESULT:      -7.5      6.387     12.015
REMARK  Name = C:\Users\Docking\Desktop\test protocol\1iep_ligandH.pdb
REMARK  8 active torsions:
REMARK  status: ('A' for Active; 'I' for Inactive)
REMARK    1  A    between atoms: _5  and  _11
REMARK    2  A    between atoms: _19  and  _21
REMARK    3  A    between atoms: _22  and  _66
REMARK    4  A    between atoms: _27  and  _30
REMARK    5  A    between atoms: _32  and  _33
REMARK    6  A    between atoms: _38  and  _43
REMARK    7  A    between atoms: _43  and  _46
REMARK    8  A    between atoms: _53  and  _55
REMARK                            x       y       z     vdW  Elec       q    Type
REMARK                         _______ _______ _______ _____ _____    ______ ____
ROOT
ATOM     10  C   UNL     1      30.255   4.473  18.642  0.00  0.00    +0.038 A 
ATOM     11  C   UNL     1      29.686   3.683  19.673  0.00  0.00    +0.047 A 
ATOM     12  C   UNL     1      28.351   3.122  19.541  0.00  0.00    +0.035 A 
ATOM     32  C   UNL     1      27.623   3.383  18.344  0.00  0.00    +0.024 A 
ATOM     33  C   UNL     1      28.186   4.185  17.286  0.00  0.00    +0.007 A 
ATOM     34  C   UNL     1      29.501   4.744  17.412  0.00  0.00    -0.029 A 
ATOM     35  C   UNL     1      30.052   5.601  16.249  0.00  0.00    +0.045 C 
ENDROOT
BRANCH  10   9
ATOM      4  C   UNL     1      35.034   4.102  18.396  0.00  0.00    +0.077 A 
ATOM      5  C   UNL     1      34.963   2.761  17.892  0.00  0.00    +0.048 A 
ATOM      6  C   UNL     1      33.678   2.200  17.717  0.00  0.00    +0.116 A 
ATOM      7  N   UNL     1      32.554   2.936  18.026  0.00  0.00    -0.223 NA
ATOM      8  C   UNL     1      32.658   4.227  18.512  0.00  0.00    +0.220 A 
ATOM      9  N   UNL     1      31.541   4.987  18.822  0.00  0.00    -0.283 N 
ATOM     36  H   UNL     1      31.660   5.933  19.185  0.00  0.00    +0.155 HD
ATOM     37  N   UNL     1      33.874   4.784  18.689  0.00  0.00    -0.214 NA
BRANCH   4   3
ATOM      1  C   UNL     1      37.768   6.896  18.536  0.00  0.00    +0.020 A 
ATOM      2  C   UNL     1      36.507   6.237  18.287  0.00  0.00    +0.013 A 
ATOM      3  C   UNL     1      36.319   4.833  18.632  0.00  0.00    +0.019 A 
ATOM     38  C   UNL     1      37.436   4.119  19.232  0.00  0.00    +0.120 A 
ATOM     39  N   UNL     1      38.640   4.780  19.458  0.00  0.00    -0.263 NA
ATOM     40  C   UNL     1      38.833   6.130  19.129  0.00  0.00    +0.111 A 
ENDBRANCH   4   3
ENDBRANCH  10   9
BRANCH  12  13
ATOM     13  N   UNL     1      27.718   2.318  20.558  0.00  0.00    -0.281 N 
ATOM     14  C   UNL     1      27.610   2.589  21.912  0.00  0.00    +0.248 C 
ATOM     30  O   UNL     1      28.230   3.467  22.494  0.00  0.00    -0.270 OA
ATOM     31  H   UNL     1      27.299   1.444  20.241  0.00  0.00    +0.155 HD
BRANCH  14  15
ATOM     15  C   UNL     1      26.689   1.755  22.744  0.00  0.00    +0.037 A 
ATOM     16  C   UNL     1      27.208   0.760  23.685  0.00  0.00    +0.013 A 
ATOM     17  C   UNL     1      26.298  -0.043  24.463  0.00  0.00    +0.005 A 
ATOM     18  C   UNL     1      24.858   0.148  24.303  0.00  0.00    -0.033 A 
ATOM     28  C   UNL     1      24.371   1.146  23.366  0.00  0.00    +0.005 A 
ATOM     29  C   UNL     1      25.260   1.934  22.602  0.00  0.00    +0.013 A 
BRANCH  18  19
ATOM     19  C   UNL     1      23.814  -0.679  25.077  0.00  0.00    +0.119 C 
BRANCH  19  20
ATOM     20  N   UNL     1      24.191  -2.073  25.457  0.00  0.00    -0.302 NA
ATOM     21  C   UNL     1      23.560  -3.113  24.527  0.00  0.00    +0.066 C 
ATOM     22  C   UNL     1      23.983  -4.565  24.926  0.00  0.00    -0.064 C 
ATOM     23  N   UNL     1      23.587  -4.827  26.380  0.00  0.00    +0.379 N 
ATOM     24  C   UNL     1      23.932  -6.210  26.741  0.00  0.00    -0.096 C 
ATOM     25  H   UNL     1      22.480  -4.724  26.453  0.00  0.00    -0.082 HD
ATOM     26  C   UNL     1      24.209  -3.795  27.312  0.00  0.00    -0.064 C 
ATOM     27  C   UNL     1      23.805  -2.355  26.889  0.00  0.00    +0.066 C 
ENDBRANCH  19  20
ENDBRANCH  18  19
ENDBRANCH  14  15
ENDBRANCH  12  13
TORSDOF 6
ENDMDL
MODEL 4
REMARK VINA RESULT:      -7.5      6.305     12.046
REMARK  Name = C:\Users\Docking\Desktop\test protocol\1iep_ligandH.pdb
REMARK  8 active torsions:
REMARK  status: ('A' for Active; 'I' for Inactive)
REMARK    1  A    between atoms: _5  and  _11
REMARK    2  A    between atoms: _19  and  _21
REMARK    3  A    between atoms: _22  and  _66
REMARK    4  A    between atoms: _27  and  _30
REMARK    5  A    between atoms: _32  and  _33
REMARK    6  A    between atoms: _38  and  _43
REMARK    7  A    between atoms: _43  and  _46
REMARK    8  A    between atoms: _53  and  _55
REMARK                            x       y       z     vdW  Elec       q    Type
REMARK                         _______ _______ _______ _____ _____    ______ ____
ROOT
ATOM     10  C   UNL     1      30.447   4.952  18.258  0.00  0.00    +0.038 A 
ATOM     11  C   UNL     1      29.965   4.187  19.350  0.00  0.00    +0.047 A 
ATOM     12  C   UNL     1      28.684   3.500  19.281  0.00  0.00    +0.035 A 
ATOM     32  C   UNL     1      27.922   3.612  18.082  0.00  0.00    +0.024 A 
ATOM     33  C   UNL     1      28.396   4.387  16.962  0.00  0.00    +0.007 A 
ATOM     34  C   UNL     1      29.657   5.069  17.026  0.00  0.00    -0.029 A 
ATOM     35  C   UNL     1      30.113   5.890  15.798  0.00  0.00    +0.045 C 
ENDROOT
BRANCH  10   9
ATOM      4  C   UNL     1      35.246   4.915  18.283  0.00  0.00    +0.077 A 
ATOM      5  C   UNL     1      35.295   3.498  18.062  0.00  0.00    +0.048 A 
ATOM      6  C   UNL     1      34.063   2.815  17.955  0.00  0.00    +0.116 A 
ATOM      7  N   UNL     1      32.876   3.508  18.062  0.00  0.00    -0.223 NA
ATOM      8  C   UNL     1      32.865   4.874  18.277  0.00  0.00    +0.220 A 
ATOM      9  N   UNL     1      31.683   5.591  18.380  0.00  0.00    -0.283 N 
ATOM     36  H   UNL     1      31.717   6.597  18.545  0.00  0.00    +0.155 HD
ATOM     37  N   UNL     1      34.028   5.549  18.384  0.00  0.00    -0.214 NA
BRANCH   4   3
ATOM      1  C   UNL     1      38.849   6.184  19.129  0.00  0.00    +0.020 A 
ATOM      2  C   UNL     1      37.702   5.311  19.027  0.00  0.00    +0.013 A 
ATOM      3  C   UNL     1      36.464   5.777  18.414  0.00  0.00    +0.019 A 
ATOM     38  C   UNL     1      36.419   7.141  17.910  0.00  0.00    +0.120 A 
ATOM     39  N   UNL     1      37.539   7.959  18.023  0.00  0.00    -0.263 NA
ATOM     40  C   UNL     1      38.735   7.522  18.612  0.00  0.00    +0.111 A 
ENDBRANCH   4   3
ENDBRANCH  10   9
BRANCH  12  13
ATOM     13  N   UNL     1      28.140   2.715  20.361  0.00  0.00    -0.281 N 
ATOM     14  C   UNL     1      27.491   3.166  21.499  0.00  0.00    +0.248 C 
ATOM     30  O   UNL     1      27.469   4.331  21.866  0.00  0.00    -0.270 OA
ATOM     31  H   UNL     1      28.245   1.704  20.276  0.00  0.00    +0.155 HD
BRANCH  14  15
ATOM     15  C   UNL     1      26.775   2.177  22.361  0.00  0.00    +0.037 A 
ATOM     16  C   UNL     1      25.313   2.173  22.459  0.00  0.00    +0.013 A 
ATOM     17  C   UNL     1      24.648   1.220  23.312  0.00  0.00    +0.005 A 
ATOM     18  C   UNL     1      25.446   0.261  24.073  0.00  0.00    -0.033 A 
ATOM     28  C   UNL     1      26.895   0.284  23.953  0.00  0.00    +0.005 A 
ATOM     29  C   UNL     1      27.550   1.218  23.119  0.00  0.00    +0.013 A 
BRANCH  18  19
ATOM     19  C   UNL     1      24.823  -0.778  25.024  0.00  0.00    +0.119 C 
BRANCH  19  20
ATOM     20  N   UNL     1      23.332  -0.857  25.067  0.00  0.00    -0.302 NA
ATOM     21  C   UNL     1      22.817  -1.225  26.461  0.00  0.00    +0.066 C 
ATOM     22  C   UNL     1      21.254  -1.281  26.494  0.00  0.00    -0.064 C 
ATOM     23  N   UNL     1      20.761  -2.286  25.452  0.00  0.00    +0.379 N 
ATOM     24  C   UNL     1      19.296  -2.384  25.520  0.00  0.00    -0.096 C 
ATOM     25  H   UNL     1      21.180  -3.284  25.720  0.00  0.00    -0.082 HD
ATOM     26  C   UNL     1      21.271  -1.930  24.063  0.00  0.00    -0.064 C 
ATOM     27  C   UNL     1      22.823  -1.847  24.048  0.00  0.00    +0.066 C 
ENDBRANCH  19  20
ENDBRANCH  18  19
ENDBRANCH  14  15
ENDBRANCH  12  13
TORSDOF 6
ENDMDL
MODEL 5
REMARK VINA RESULT:      -7.5      7.588     11.664
REMARK  Name = C:\Users\Docking\Desktop\test protocol\1iep_ligandH.pdb
REMARK  8 active torsions:
REMARK  status: ('A' for Active; 'I' for Inactive)
REMARK    1  A    between atoms: _5  and  _11
REMARK    2  A    between atoms: _19  and  _21
REMARK    3  A    between atoms: _22  and  _66
REMARK    4  A    between atoms: _27  and  _30
REMARK    5  A    between atoms: _32  and  _33
REMARK    6  A    between atoms: _38  and  _43
REMARK    7  A    between atoms: _43  and  _46
REMARK    8  A    between atoms: _53  and  _55
REMARK                            x       y       z     vdW  Elec       q    Type
REMARK                         _______ _______ _______ _____ _____    ______ ____
ROOT
ATOM     10  C   UNL     1      34.375   3.344  19.680  0.00  0.00    +0.038 A 
ATOM     11  C   UNL     1      33.071   3.469  20.224  0.00  0.00    +0.047 A 
ATOM     12  C   UNL     1      32.305   2.298  20.619  0.00  0.00    +0.035 A 
ATOM     32  C   UNL     1      32.898   1.013  20.448  0.00  0.00    +0.024 A 
ATOM     33  C   UNL     1      34.222   0.867  19.896  0.00  0.00    +0.007 A 
ATOM     34  C   UNL     1      34.982   2.019  19.502  0.00  0.00    -0.029 A 
ATOM     35  C   UNL     1      36.394   1.803  18.909  0.00  0.00    +0.045 C 
ENDROOT
BRANCH  10   9
ATOM      4  C   UNL     1      35.113   7.102  16.787  0.00  0.00    +0.077 A 
ATOM      5  C   UNL     1      34.049   6.709  15.908  0.00  0.00    +0.048 A 
ATOM      6  C   UNL     1      33.342   5.530  16.232  0.00  0.00    +0.116 A 
ATOM      7  N   UNL     1      33.681   4.806  17.354  0.00  0.00    -0.223 NA
ATOM      8  C   UNL     1      34.713   5.211  18.180  0.00  0.00    +0.220 A 
ATOM      9  N   UNL     1      35.066   4.503  19.318  0.00  0.00    -0.283 N 
ATOM     36  H   UNL     1      35.838   4.831  19.897  0.00  0.00    +0.155 HD
ATOM     37  N   UNL     1      35.405   6.333  17.891  0.00  0.00    -0.214 NA
BRANCH   4   3
ATOM      1  C   UNL     1      36.561  10.434  15.338  0.00  0.00    +0.020 A 
ATOM      2  C   UNL     1      35.723   9.268  15.492  0.00  0.00    +0.013 A 
ATOM      3  C   UNL     1      35.951   8.326  16.581  0.00  0.00    +0.019 A 
ATOM     38  C   UNL     1      37.043   8.596  17.504  0.00  0.00    +0.120 A 
ATOM     39  N   UNL     1      37.835   9.727  17.329  0.00  0.00    -0.263 NA
ATOM     40  C   UNL     1      37.626  10.639  16.284  0.00  0.00    +0.111 A 
ENDBRANCH   4   3
ENDBRANCH  10   9
BRANCH  12  13
ATOM     13  N   UNL     1      30.974   2.362  21.170  0.00  0.00    -0.281 N 
ATOM     14  C   UNL     1      29.781   2.563  20.494  0.00  0.00    +0.248 C 
ATOM     30  O   UNL     1      29.699   2.933  19.332  0.00  0.00    -0.270 OA
ATOM     31  H   UNL     1      30.902   2.246  22.181  0.00  0.00    +0.155 HD
BRANCH  14  15
ATOM     15  C   UNL     1      28.494   2.335  21.217  0.00  0.00    +0.037 A 
ATOM     16  C   UNL     1      27.214   2.755  20.642  0.00  0.00    +0.013 A 
ATOM     17  C   UNL     1      25.988   2.538  21.368  0.00  0.00    +0.005 A 
ATOM     18  C   UNL     1      26.037   1.895  22.679  0.00  0.00    -0.033 A 
ATOM     28  C   UNL     1      27.320   1.483  23.224  0.00  0.00    +0.005 A 
ATOM     29  C   UNL     1      28.523   1.695  22.515  0.00  0.00    +0.013 A 
BRANCH  18  19
ATOM     19  C   UNL     1      24.781   1.642  23.534  0.00  0.00    +0.119 C 
BRANCH  19  20
ATOM     20  N   UNL     1      24.462   0.224  23.879  0.00  0.00    -0.302 NA
ATOM     21  C   UNL     1      23.028  -0.152  23.497  0.00  0.00    +0.066 C 
ATOM     22  C   UNL     1      22.719  -1.644  23.845  0.00  0.00    -0.064 C 
ATOM     23  N   UNL     1      22.961  -1.878  25.337  0.00  0.00    +0.379 N 
ATOM     24  C   UNL     1      22.616  -3.266  25.678  0.00  0.00    -0.096 C 
ATOM     25  H   UNL     1      22.270  -1.209  25.901  0.00  0.00    -0.082 HD
ATOM     26  C   UNL     1      24.384  -1.504  25.726  0.00  0.00    -0.064 C 
ATOM     27  C   UNL     1      24.691  -0.028  25.350  0.00  0.00    +0.066 C 
ENDBRANCH  19  20
ENDBRANCH  18  19
ENDBRANCH  14  15
ENDBRANCH  12  13
TORSDOF 6
ENDMDL
