MODEL 1
REMARK VINA RESULT:      -9.2      0.000      0.000
REMARK  Name = C:\Users\Docking\Desktop\test protocol\1iep_ligandH.pdb
REMARK  8 active torsions:
REMARK  status: ('A' for Active; 'I' for Inactive)
REMARK    1  A    between atoms: _5  and  _11
REMARK    2  A    between atoms: _19  and  _21
REMARK    3  A    between atoms: _22  and  _66
REMARK    4  A    between atoms: _27  and  _30
REMARK    5  A    between atoms: _32  and  _33
REMARK    6  A    between atoms: _38  and  _43
REMARK    7  A    between atoms: _43  and  _46
REMARK    8  A    between atoms: _53  and  _55
REMARK                            x       y       z     vdW  Elec       q    Type
REMARK                         _______ _______ _______ _____ _____    ______ ____
ROOT
ATOM     10  C   UNL     1      -0.128   6.811  20.624  0.00  0.00    +0.038 A 
ATOM     11  C   UNL     1      -1.510   6.806  20.305  0.00  0.00    +0.047 A 
ATOM     12  C   UNL     1      -1.971   6.512  18.957  0.00  0.00    +0.035 A 
ATOM     32  C   UNL     1      -0.996   6.224  17.958  0.00  0.00    +0.024 A 
ATOM     33  C   UNL     1       0.413   6.225  18.264  0.00  0.00    +0.007 A 
ATOM     34  C   UNL     1       0.873   6.517  19.592  0.00  0.00    -0.029 A 
ATOM     35  C   UNL     1       2.396   6.511  19.861  0.00  0.00    +0.045 C 
ENDROOT
BRANCH  10   9
ATOM      4  C   UNL     1       0.923   5.489  25.116  0.00  0.00    +0.077 A 
ATOM      5  C   UNL     1       0.655   4.108  24.836  0.00  0.00    +0.048 A 
ATOM      6  C   UNL     1       0.241   3.780  23.525  0.00  0.00    +0.116 A 
ATOM      7  N   UNL     1       0.110   4.769  22.573  0.00  0.00    -0.223 NA
ATOM      8  C   UNL     1       0.376   6.091  22.878  0.00  0.00    +0.220 A 
ATOM      9  N   UNL     1       0.258   7.101  21.935  0.00  0.00    -0.283 N 
ATOM     36  H   UNL     1       0.455   8.065  22.201  0.00  0.00    +0.155 HD
ATOM     37  N   UNL     1       0.770   6.430  24.123  0.00  0.00    -0.214 NA
BRANCH   4   3
ATOM      1  C   UNL     1       0.928   6.814  28.797  0.00  0.00    +0.020 A 
ATOM      2  C   UNL     1       0.443   6.333  27.524  0.00  0.00    +0.013 A 
ATOM      3  C   UNL     1       1.372   5.992  26.453  0.00  0.00    +0.019 A 
ATOM     38  C   UNL     1       2.796   6.149  26.706  0.00  0.00    +0.120 A 
ATOM     39  N   UNL     1       3.234   6.616  27.942  0.00  0.00    -0.263 NA
ATOM     40  C   UNL     1       2.349   6.949  28.978  0.00  0.00    +0.111 A 
ENDBRANCH   4   3
ENDBRANCH  10   9
BRANCH  12  13
ATOM     13  N   UNL     1      -3.361   6.501  18.573  0.00  0.00    -0.281 N 
ATOM     14  C   UNL     1      -4.117   7.552  18.080  0.00  0.00    +0.248 C 
ATOM     30  O   UNL     1      -3.766   8.722  18.096  0.00  0.00    -0.270 OA
ATOM     31  H   UNL     1      -3.846   5.609  18.677  0.00  0.00    +0.155 HD
BRANCH  14  15
ATOM     15  C   UNL     1      -5.463   7.262  17.499  0.00  0.00    +0.037 A 
ATOM     16  C   UNL     1      -6.257   6.118  17.953  0.00  0.00    +0.013 A 
ATOM     17  C   UNL     1      -7.545   5.852  17.363  0.00  0.00    +0.005 A 
ATOM     18  C   UNL     1      -8.048   6.734  16.312  0.00  0.00    -0.033 A 
ATOM     28  C   UNL     1      -7.241   7.865  15.884  0.00  0.00    +0.005 A 
ATOM     29  C   UNL     1      -5.978   8.128  16.459  0.00  0.00    +0.013 A 
BRANCH  18  19
ATOM     19  C   UNL     1      -9.402   6.514  15.612  0.00  0.00    +0.119 C 
BRANCH  19  20
ATOM     20  N   UNL     1      -9.517   6.958  14.191  0.00  0.00    -0.302 NA
ATOM     21  C   UNL     1     -10.296   8.270  14.061  0.00  0.00    +0.066 C 
ATOM     22  C   UNL     1     -10.388   8.732  12.570  0.00  0.00    -0.064 C 
ATOM     23  N   UNL     1     -11.041   7.628  11.736  0.00  0.00    +0.379 N 
ATOM     24  C   UNL     1     -11.181   8.082  10.345  0.00  0.00    -0.096 C 
ATOM     25  H   UNL     1     -12.066   7.459  12.142  0.00  0.00    -0.082 HD
ATOM     26  C   UNL     1     -10.274   6.320  11.862  0.00  0.00    -0.064 C 
ATOM     27  C   UNL     1     -10.163   5.885  13.350  0.00  0.00    +0.066 C 
ENDBRANCH  19  20
ENDBRANCH  18  19
ENDBRANCH  14  15
ENDBRANCH  12  13
TORSDOF 6
ENDMDL
MODEL 2
REMARK VINA RESULT:      -9.1     10.508     17.355
REMARK  Name = C:\Users\Docking\Desktop\test protocol\1iep_ligandH.pdb
REMARK  8 active torsions:
REMARK  status: ('A' for Active; 'I' for Inactive)
REMARK    1  A    between atoms: _5  and  _11
REMARK    2  A    between atoms: _19  and  _21
REMARK    3  A    between atoms: _22  and  _66
REMARK    4  A    between atoms: _27  and  _30
REMARK    5  A    between atoms: _32  and  _33
REMARK    6  A    between atoms: _38  and  _43
REMARK    7  A    between atoms: _43  and  _46
REMARK    8  A    between atoms: _53  and  _55
REMARK                            x       y       z     vdW  Elec       q    Type
REMARK                         _______ _______ _______ _____ _____    ______ ____
ROOT
ATOM     10  C   UNL     1     -11.526   9.807   6.963  0.00  0.00    +0.038 A 
ATOM     11  C   UNL     1     -12.753   9.164   6.655  0.00  0.00    +0.047 A 
ATOM     12  C   UNL     1     -13.236   9.083   5.285  0.00  0.00    +0.035 A 
ATOM     32  C   UNL     1     -12.443   9.665   4.253  0.00  0.00    +0.024 A 
ATOM     33  C   UNL     1     -11.195  10.322   4.549  0.00  0.00    +0.007 A 
ATOM     34  C   UNL     1     -10.714  10.408   5.898  0.00  0.00    -0.029 A 
ATOM     35  C   UNL     1      -9.372  11.130   6.158  0.00  0.00    +0.045 C 
ENDROOT
BRANCH  10   9
ATOM      4  C   UNL     1      -9.957   7.713  10.987  0.00  0.00    +0.077 A 
ATOM      5  C   UNL     1      -9.995   6.407  10.393  0.00  0.00    +0.048 A 
ATOM      6  C   UNL     1     -10.432   6.317   9.052  0.00  0.00    +0.116 A 
ATOM      7  N   UNL     1     -10.799   7.454   8.366  0.00  0.00    -0.223 NA
ATOM      8  C   UNL     1     -10.752   8.698   8.969  0.00  0.00    +0.220 A 
ATOM      9  N   UNL     1     -11.110   9.856   8.295  0.00  0.00    -0.283 N 
ATOM     36  H   UNL     1     -11.069  10.753   8.778  0.00  0.00    +0.155 HD
ATOM     37  N   UNL     1     -10.341   8.810  10.249  0.00  0.00    -0.214 NA
BRANCH   4   3
ATOM      1  C   UNL     1      -9.078   7.244  14.769  0.00  0.00    +0.020 A 
ATOM      2  C   UNL     1      -9.515   6.942  13.425  0.00  0.00    +0.013 A 
ATOM      3  C   UNL     1      -9.516   7.971  12.394  0.00  0.00    +0.019 A 
ATOM     38  C   UNL     1      -9.066   9.306  12.757  0.00  0.00    +0.120 A 
ATOM     39  N   UNL     1      -8.652   9.568  14.060  0.00  0.00    -0.263 NA
ATOM     40  C   UNL     1      -8.648   8.586  15.062  0.00  0.00    +0.111 A 
ENDBRANCH   4   3
ENDBRANCH  10   9
BRANCH  12  13
ATOM     13  N   UNL     1     -14.477   8.451   4.913  0.00  0.00    -0.281 N 
ATOM     14  C   UNL     1     -14.786   7.100   4.937  0.00  0.00    +0.248 C 
ATOM     30  O   UNL     1     -13.965   6.206   5.081  0.00  0.00    -0.270 OA
ATOM     31  H   UNL     1     -15.218   9.074   4.592  0.00  0.00    +0.155 HD
BRANCH  14  15
ATOM     15  C   UNL     1     -16.210   6.682   4.761  0.00  0.00    +0.037 A 
ATOM     16  C   UNL     1     -16.863   6.739   3.450  0.00  0.00    +0.013 A 
ATOM     17  C   UNL     1     -18.242   6.346   3.312  0.00  0.00    +0.005 A 
ATOM     18  C   UNL     1     -18.979   5.890   4.488  0.00  0.00    -0.033 A 
ATOM     28  C   UNL     1     -18.305   5.838   5.775  0.00  0.00    +0.005 A 
ATOM     29  C   UNL     1     -16.953   6.224   5.915  0.00  0.00    +0.013 A 
BRANCH  18  19
ATOM     19  C   UNL     1     -20.460   5.471   4.438  0.00  0.00    +0.119 C 
BRANCH  19  20
ATOM     20  N   UNL     1     -21.240   5.863   3.226  0.00  0.00    -0.302 NA
ATOM     21  C   UNL     1     -22.634   6.388   3.585  0.00  0.00    +0.066 C 
ATOM     22  C   UNL     1     -23.428   6.815   2.308  0.00  0.00    -0.064 C 
ATOM     23  N   UNL     1     -23.527   5.625   1.351  0.00  0.00    +0.379 N 
ATOM     24  C   UNL     1     -24.322   6.007   0.175  0.00  0.00    -0.096 C 
ATOM     25  H   UNL     1     -24.074   4.811   1.880  0.00  0.00    -0.082 HD
ATOM     26  C   UNL     1     -22.146   5.096   0.991  0.00  0.00    -0.064 C 
ATOM     27  C   UNL     1     -21.354   4.702   2.269  0.00  0.00    +0.066 C 
ENDBRANCH  19  20
ENDBRANCH  18  19
ENDBRANCH  14  15
ENDBRANCH  12  13
TORSDOF 6
ENDMDL
MODEL 3
REMARK VINA RESULT:      -9.0     27.003     29.080
REMARK  Name = C:\Users\Docking\Desktop\test protocol\1iep_ligandH.pdb
REMARK  8 active torsions:
REMARK  status: ('A' for Active; 'I' for Inactive)
REMARK    1  A    between atoms: _5  and  _11
REMARK    2  A    between atoms: _19  and  _21
REMARK    3  A    between atoms: _22  and  _66
REMARK    4  A    between atoms: _27  and  _30
REMARK    5  A    between atoms: _32  and  _33
REMARK    6  A    between atoms: _38  and  _43
REMARK    7  A    between atoms: _43  and  _46
REMARK    8  A    between atoms: _53  and  _55
REMARK                            x       y       z     vdW  Elec       q    Type
REMARK                         _______ _______ _______ _____ _____    ______ ____
ROOT
ATOM     10  C   UNL     1     -15.938 -11.787  33.410  0.00  0.00    +0.038 A 
ATOM     11  C   UNL     1     -15.592 -13.147  33.206  0.00  0.00    +0.047 A 
ATOM     12  C   UNL     1     -16.616 -14.164  33.020  0.00  0.00    +0.035 A 
ATOM     32  C   UNL     1     -17.982 -13.760  33.045  0.00  0.00    +0.024 A 
ATOM     33  C   UNL     1     -18.352 -12.382  33.252  0.00  0.00    +0.007 A 
ATOM     34  C   UNL     1     -17.347 -11.375  33.438  0.00  0.00    -0.029 A 
ATOM     35  C   UNL     1     -17.801  -9.914  33.663  0.00  0.00    +0.045 C 
ENDROOT
BRANCH  10   9
ATOM      4  C   UNL     1     -12.765  -9.442  36.144  0.00  0.00    +0.077 A 
ATOM      5  C   UNL     1     -13.201 -10.117  37.332  0.00  0.00    +0.048 A 
ATOM      6  C   UNL     1     -14.250 -11.055  37.198  0.00  0.00    +0.116 A 
ATOM      7  N   UNL     1     -14.812 -11.293  35.963  0.00  0.00    -0.223 NA
ATOM      8  C   UNL     1     -14.369 -10.623  34.837  0.00  0.00    +0.220 A 
ATOM      9  N   UNL     1     -14.915 -10.852  33.583  0.00  0.00    -0.283 N 
ATOM     36  H   UNL     1     -14.565 -10.333  32.778  0.00  0.00    +0.155 HD
ATOM     37  N   UNL     1     -13.370  -9.722  34.939  0.00  0.00    -0.214 NA
BRANCH   4   3
ATOM      1  C   UNL     1     -10.186  -6.757  34.944  0.00  0.00    +0.020 A 
ATOM      2  C   UNL     1     -11.253  -7.730  34.910  0.00  0.00    +0.013 A 
ATOM      3  C   UNL     1     -11.666  -8.426  36.122  0.00  0.00    +0.019 A 
ATOM     38  C   UNL     1     -10.972  -8.112  37.363  0.00  0.00    +0.120 A 
ATOM     39  N   UNL     1      -9.947  -7.171  37.364  0.00  0.00    -0.263 NA
ATOM     40  C   UNL     1      -9.541  -6.497  36.204  0.00  0.00    +0.111 A 
ENDBRANCH   4   3
ENDBRANCH  10   9
BRANCH  12  13
ATOM     13  N   UNL     1     -16.325 -15.562  32.818  0.00  0.00    -0.281 N 
ATOM     14  C   UNL     1     -16.708 -16.635  33.606  0.00  0.00    +0.248 C 
ATOM     30  O   UNL     1     -17.181 -16.533  34.728  0.00  0.00    -0.270 OA
ATOM     31  H   UNL     1     -15.769 -15.788  31.992  0.00  0.00    +0.155 HD
BRANCH  14  15
ATOM     15  C   UNL     1     -16.525 -18.021  33.078  0.00  0.00    +0.037 A 
ATOM     16  C   UNL     1     -15.457 -18.890  33.578  0.00  0.00    +0.013 A 
ATOM     17  C   UNL     1     -15.293 -20.217  33.039  0.00  0.00    +0.005 A 
ATOM     18  C   UNL     1     -16.201 -20.683  31.993  0.00  0.00    -0.033 A 
ATOM     28  C   UNL     1     -17.255 -19.801  31.519  0.00  0.00    +0.005 A 
ATOM     29  C   UNL     1     -17.418 -18.500  32.045  0.00  0.00    +0.013 A 
BRANCH  18  19
ATOM     19  C   UNL     1     -16.086 -22.075  31.346  0.00  0.00    +0.119 C 
BRANCH  19  20
ATOM     20  N   UNL     1     -15.849 -22.127  29.872  0.00  0.00    -0.302 NA
ATOM     21  C   UNL     1     -16.582 -23.299  29.213  0.00  0.00    +0.066 C 
ATOM     22  C   UNL     1     -16.341 -23.324  27.668  0.00  0.00    -0.064 C 
ATOM     23  N   UNL     1     -14.839 -23.399  27.390  0.00  0.00    +0.379 N 
ATOM     24  C   UNL     1     -14.612 -23.482  25.940  0.00  0.00    -0.096 C 
ATOM     25  H   UNL     1     -14.457 -24.342  27.846  0.00  0.00    -0.082 HD
ATOM     26  C   UNL     1     -14.102 -22.239  28.044  0.00  0.00    -0.064 C 
ATOM     27  C   UNL     1     -14.372 -22.205  29.575  0.00  0.00    +0.066 C 
ENDBRANCH  19  20
ENDBRANCH  18  19
ENDBRANCH  14  15
ENDBRANCH  12  13
TORSDOF 6
ENDMDL
MODEL 4
REMARK VINA RESULT:      -8.9     10.571     17.240
REMARK  Name = C:\Users\Docking\Desktop\test protocol\1iep_ligandH.pdb
REMARK  8 active torsions:
REMARK  status: ('A' for Active; 'I' for Inactive)
REMARK    1  A    between atoms: _5  and  _11
REMARK    2  A    between atoms: _19  and  _21
REMARK    3  A    between atoms: _22  and  _66
REMARK    4  A    between atoms: _27  and  _30
REMARK    5  A    between atoms: _32  and  _33
REMARK    6  A    between atoms: _38  and  _43
REMARK    7  A    between atoms: _43  and  _46
REMARK    8  A    between atoms: _53  and  _55
REMARK                            x       y       z     vdW  Elec       q    Type
REMARK                         _______ _______ _______ _____ _____    ______ ____
ROOT
ATOM     10  C   UNL     1     -11.941   9.281   6.828  0.00  0.00    +0.038 A 
ATOM     11  C   UNL     1     -13.240   8.756   6.608  0.00  0.00    +0.047 A 
ATOM     12  C   UNL     1     -13.757   8.567   5.261  0.00  0.00    +0.035 A 
ATOM     32  C   UNL     1     -12.923   8.922   4.162  0.00  0.00    +0.024 A 
ATOM     33  C   UNL     1     -11.601   9.459   4.367  0.00  0.00    +0.007 A 
ATOM     34  C   UNL     1     -11.086   9.650   5.693  0.00  0.00    -0.029 A 
ATOM     35  C   UNL     1      -9.664  10.235   5.855  0.00  0.00    +0.045 C 
ENDROOT
BRANCH  10   9
ATOM      4  C   UNL     1     -10.040   7.573  10.891  0.00  0.00    +0.077 A 
ATOM      5  C   UNL     1      -9.952   6.243  10.360  0.00  0.00    +0.048 A 
ATOM      6  C   UNL     1     -10.414   6.039   9.040  0.00  0.00    +0.116 A 
ATOM      7  N   UNL     1     -10.923   7.094   8.314  0.00  0.00    -0.223 NA
ATOM      8  C   UNL     1     -10.995   8.364   8.857  0.00  0.00    +0.220 A 
ATOM      9  N   UNL     1     -11.496   9.442   8.142  0.00  0.00    -0.283 N 
ATOM     36  H   UNL     1     -11.539  10.361   8.581  0.00  0.00    +0.155 HD
ATOM     37  N   UNL     1     -10.562   8.584  10.116  0.00  0.00    -0.214 NA
BRANCH   4   3
ATOM      1  C   UNL     1      -8.703   9.595  13.960  0.00  0.00    +0.020 A 
ATOM      2  C   UNL     1      -9.126   9.285  12.614  0.00  0.00    +0.013 A 
ATOM      3  C   UNL     1      -9.591   7.947  12.269  0.00  0.00    +0.019 A 
ATOM     38  C   UNL     1      -9.616   6.939  13.317  0.00  0.00    +0.120 A 
ATOM     39  N   UNL     1      -9.201   7.266  14.604  0.00  0.00    -0.263 NA
ATOM     40  C   UNL     1      -8.750   8.549  14.948  0.00  0.00    +0.111 A 
ENDBRANCH   4   3
ENDBRANCH  10   9
BRANCH  12  13
ATOM     13  N   UNL     1     -15.070   8.045   4.976  0.00  0.00    -0.281 N 
ATOM     14  C   UNL     1     -15.429   6.729   4.731  0.00  0.00    +0.248 C 
ATOM     30  O   UNL     1     -14.636   5.827   4.508  0.00  0.00    -0.270 OA
ATOM     31  H   UNL     1     -15.828   8.728   4.952  0.00  0.00    +0.155 HD
BRANCH  14  15
ATOM     15  C   UNL     1     -16.879   6.367   4.717  0.00  0.00    +0.037 A 
ATOM     16  C   UNL     1     -17.653   6.378   3.474  0.00  0.00    +0.013 A 
ATOM     17  C   UNL     1     -19.055   6.040   3.491  0.00  0.00    +0.005 A 
ATOM     18  C   UNL     1     -19.691   5.688   4.758  0.00  0.00    -0.033 A 
ATOM     28  C   UNL     1     -18.898   5.680   5.977  0.00  0.00    +0.005 A 
ATOM     29  C   UNL     1     -17.524   6.011   5.963  0.00  0.00    +0.013 A 
BRANCH  18  19
ATOM     19  C   UNL     1     -21.186   5.335   4.874  0.00  0.00    +0.119 C 
BRANCH  19  20
ATOM     20  N   UNL     1     -21.866   5.656   6.164  0.00  0.00    -0.302 NA
ATOM     21  C   UNL     1     -22.373   4.399   6.876  0.00  0.00    +0.066 C 
ATOM     22  C   UNL     1     -23.062   4.751   8.234  0.00  0.00    -0.064 C 
ATOM     23  N   UNL     1     -24.210   5.730   7.981  0.00  0.00    +0.379 N 
ATOM     24  C   UNL     1     -24.896   6.019   9.249  0.00  0.00    -0.096 C 
ATOM     25  H   UNL     1     -24.941   5.227   7.307  0.00  0.00    -0.082 HD
ATOM     26  C   UNL     1     -23.715   6.983   7.272  0.00  0.00    -0.064 C 
ATOM     27  C   UNL     1     -23.006   6.619   5.937  0.00  0.00    +0.066 C 
ENDBRANCH  19  20
ENDBRANCH  18  19
ENDBRANCH  14  15
ENDBRANCH  12  13
TORSDOF 6
ENDMDL
MODEL 5
REMARK VINA RESULT:      -8.7     26.965     29.236
REMARK  Name = C:\Users\Docking\Desktop\test protocol\1iep_ligandH.pdb
REMARK  8 active torsions:
REMARK  status: ('A' for Active; 'I' for Inactive)
REMARK    1  A    between atoms: _5  and  _11
REMARK    2  A    between atoms: _19  and  _21
REMARK    3  A    between atoms: _22  and  _66
REMARK    4  A    between atoms: _27  and  _30
REMARK    5  A    between atoms: _32  and  _33
REMARK    6  A    between atoms: _38  and  _43
REMARK    7  A    between atoms: _43  and  _46
REMARK    8  A    between atoms: _53  and  _55
REMARK                            x       y       z     vdW  Elec       q    Type
REMARK                         _______ _______ _______ _____ _____    ______ ____
ROOT
ATOM     10  C   UNL     1     -15.967 -12.020  33.404  0.00  0.00    +0.038 A 
ATOM     11  C   UNL     1     -15.598 -13.384  33.283  0.00  0.00    +0.047 A 
ATOM     12  C   UNL     1     -16.602 -14.422  33.104  0.00  0.00    +0.035 A 
ATOM     32  C   UNL     1     -17.973 -14.034  33.050  0.00  0.00    +0.024 A 
ATOM     33  C   UNL     1     -18.365 -12.652  33.172  0.00  0.00    +0.007 A 
ATOM     34  C   UNL     1     -17.379 -11.624  33.351  0.00  0.00    -0.029 A 
ATOM     35  C   UNL     1     -17.858 -10.160  33.483  0.00  0.00    +0.045 C 
ENDROOT
BRANCH  10   9
ATOM      4  C   UNL     1     -12.906  -9.538  36.144  0.00  0.00    +0.077 A 
ATOM      5  C   UNL     1     -13.367 -10.178  37.342  0.00  0.00    +0.048 A 
ATOM      6  C   UNL     1     -14.398 -11.135  37.211  0.00  0.00    +0.116 A 
ATOM      7  N   UNL     1     -14.922 -11.423  35.969  0.00  0.00    -0.223 NA
ATOM      8  C   UNL     1     -14.455 -10.786  34.834  0.00  0.00    +0.220 A 
ATOM      9  N   UNL     1     -14.962 -11.065  33.574  0.00  0.00    -0.283 N 
ATOM     36  H   UNL     1     -14.596 -10.568  32.762  0.00  0.00    +0.155 HD
ATOM     37  N   UNL     1     -13.472  -9.867  34.933  0.00  0.00    -0.214 NA
BRANCH   4   3
ATOM      1  C   UNL     1     -10.326  -6.862  34.926  0.00  0.00    +0.020 A 
ATOM      2  C   UNL     1     -11.379  -7.851  34.895  0.00  0.00    +0.013 A 
ATOM      3  C   UNL     1     -11.820  -8.508  36.119  0.00  0.00    +0.019 A 
ATOM     38  C   UNL     1     -11.171  -8.138  37.368  0.00  0.00    +0.120 A 
ATOM     39  N   UNL     1     -10.159  -7.183  37.366  0.00  0.00    -0.263 NA
ATOM     40  C   UNL     1      -9.725  -6.545  36.195  0.00  0.00    +0.111 A 
ENDBRANCH   4   3
ENDBRANCH  10   9
BRANCH  12  13
ATOM     13  N   UNL     1     -16.289 -15.824  32.984  0.00  0.00    -0.281 N 
ATOM     14  C   UNL     1     -17.130 -16.905  33.186  0.00  0.00    +0.248 C 
ATOM     30  O   UNL     1     -18.231 -16.835  33.713  0.00  0.00    -0.270 OA
ATOM     31  H   UNL     1     -15.329 -16.046  32.717  0.00  0.00    +0.155 HD
BRANCH  14  15
ATOM     15  C   UNL     1     -16.678 -18.263  32.755  0.00  0.00    +0.037 A 
ATOM     16  C   UNL     1     -15.492 -18.891  33.342  0.00  0.00    +0.013 A 
ATOM     17  C   UNL     1     -15.068 -20.195  32.896  0.00  0.00    +0.005 A 
ATOM     18  C   UNL     1     -15.832 -20.879  31.856  0.00  0.00    -0.033 A 
ATOM     28  C   UNL     1     -17.008 -20.236  31.295  0.00  0.00    +0.005 A 
ATOM     29  C   UNL     1     -17.426 -18.958  31.729  0.00  0.00    +0.013 A 
BRANCH  18  19
ATOM     19  C   UNL     1     -15.441 -22.263  31.304  0.00  0.00    +0.119 C 
BRANCH  19  20
ATOM     20  N   UNL     1     -14.381 -22.305  30.253  0.00  0.00    -0.302 NA
ATOM     21  C   UNL     1     -14.965 -22.532  28.856  0.00  0.00    +0.066 C 
ATOM     22  C   UNL     1     -13.844 -22.550  27.767  0.00  0.00    -0.064 C 
ATOM     23  N   UNL     1     -12.821 -23.635  28.109  0.00  0.00    +0.379 N 
ATOM     24  C   UNL     1     -11.797 -23.694  27.056  0.00  0.00    -0.096 C 
ATOM     25  H   UNL     1     -13.356 -24.613  28.116  0.00  0.00    -0.082 HD
ATOM     26  C   UNL     1     -12.237 -23.418  29.498  0.00  0.00    -0.064 C 
ATOM     27  C   UNL     1     -13.362 -23.372  30.569  0.00  0.00    +0.066 C 
ENDBRANCH  19  20
ENDBRANCH  18  19
ENDBRANCH  14  15
ENDBRANCH  12  13
TORSDOF 6
ENDMDL
