MODEL 1
REMARK VINA RESULT:      -9.5      0.000      0.000
REMARK  Name = C:\Users\Docking\Desktop\test protocol\1iep_ligandH.pdb
REMARK  8 active torsions:
REMARK  status: ('A' for Active; 'I' for Inactive)
REMARK    1  A    between atoms: _5  and  _11
REMARK    2  A    between atoms: _19  and  _21
REMARK    3  A    between atoms: _22  and  _66
REMARK    4  A    between atoms: _27  and  _30
REMARK    5  A    between atoms: _32  and  _33
REMARK    6  A    between atoms: _38  and  _43
REMARK    7  A    between atoms: _43  and  _46
REMARK    8  A    between atoms: _53  and  _55
REMARK                            x       y       z     vdW  Elec       q    Type
REMARK                         _______ _______ _______ _____ _____    ______ ____
ROOT
ATOM     10  C   UNL     1      -5.415 -15.182   2.228  0.00  0.00    +0.038 A 
ATOM     11  C   UNL     1      -4.030 -14.956   2.024  0.00  0.00    +0.047 A 
ATOM     12  C   UNL     1      -3.092 -14.976   3.136  0.00  0.00    +0.035 A 
ATOM     32  C   UNL     1      -3.600 -15.232   4.443  0.00  0.00    +0.024 A 
ATOM     33  C   UNL     1      -5.005 -15.463   4.669  0.00  0.00    +0.007 A 
ATOM     34  C   UNL     1      -5.935 -15.442   3.576  0.00  0.00    -0.029 A 
ATOM     35  C   UNL     1      -7.431 -15.690   3.877  0.00  0.00    +0.045 C 
ENDROOT
BRANCH  10   9
ATOM      4  C   UNL     1      -8.365 -12.881  -0.779  0.00  0.00    +0.077 A 
ATOM      5  C   UNL     1      -8.210 -11.641  -0.075  0.00  0.00    +0.048 A 
ATOM      6  C   UNL     1      -7.368 -11.639   1.060  0.00  0.00    +0.116 A 
ATOM      7  N   UNL     1      -6.733 -12.797   1.452  0.00  0.00    -0.223 NA
ATOM      8  C   UNL     1      -6.905 -13.977   0.752  0.00  0.00    +0.220 A 
ATOM      9  N   UNL     1      -6.270 -15.152   1.124  0.00  0.00    -0.283 N 
ATOM     36  H   UNL     1      -6.429 -16.003   0.586  0.00  0.00    +0.155 HD
ATOM     37  N   UNL     1      -7.705 -14.005  -0.334  0.00  0.00    -0.214 NA
BRANCH   4   3
ATOM      1  C   UNL     1      -9.668 -13.952  -4.308  0.00  0.00    +0.020 A 
ATOM      2  C   UNL     1      -8.806 -13.828  -3.155  0.00  0.00    +0.013 A 
ATOM      3  C   UNL     1      -9.218 -13.043  -1.998  0.00  0.00    +0.019 A 
ATOM     38  C   UNL     1     -10.519 -12.392  -2.040  0.00  0.00    +0.120 A 
ATOM     39  N   UNL     1     -11.327 -12.528  -3.164  0.00  0.00    -0.263 NA
ATOM     40  C   UNL     1     -10.940 -13.279  -4.284  0.00  0.00    +0.111 A 
ENDBRANCH   4   3
ENDBRANCH  10   9
BRANCH  12  13
ATOM     13  N   UNL     1      -1.676 -14.745   2.992  0.00  0.00    -0.281 N 
ATOM     14  C   UNL     1      -0.838 -14.036   3.836  0.00  0.00    +0.248 C 
ATOM     30  O   UNL     1      -1.223 -13.308   4.739  0.00  0.00    -0.270 OA
ATOM     31  H   UNL     1      -1.239 -15.154   2.166  0.00  0.00    +0.155 HD
BRANCH  14  15
ATOM     15  C   UNL     1       0.640 -14.139   3.640  0.00  0.00    +0.037 A 
ATOM     16  C   UNL     1       1.542 -14.368   4.772  0.00  0.00    +0.013 A 
ATOM     17  C   UNL     1       2.965 -14.446   4.557  0.00  0.00    +0.005 A 
ATOM     18  C   UNL     1       3.495 -14.296   3.204  0.00  0.00    -0.033 A 
ATOM     28  C   UNL     1       2.577 -14.075   2.099  0.00  0.00    +0.005 A 
ATOM     29  C   UNL     1       1.181 -13.997   2.306  0.00  0.00    +0.013 A 
BRANCH  18  19
ATOM     19  C   UNL     1       5.001 -14.345   2.885  0.00  0.00    +0.119 C 
BRANCH  19  20
ATOM     20  N   UNL     1       5.794 -15.453   3.497  0.00  0.00    -0.302 NA
ATOM     21  C   UNL     1       7.185 -14.988   3.937  0.00  0.00    +0.066 C 
ATOM     22  C   UNL     1       7.993 -16.154   4.596  0.00  0.00    -0.064 C 
ATOM     23  N   UNL     1       8.098 -17.318   3.609  0.00  0.00    +0.379 N 
ATOM     24  C   UNL     1       8.906 -18.393   4.203  0.00  0.00    -0.096 C 
ATOM     25  H   UNL     1       8.638 -16.948   2.706  0.00  0.00    -0.082 HD
ATOM     26  C   UNL     1       6.719 -17.785   3.164  0.00  0.00    -0.064 C 
ATOM     27  C   UNL     1       5.914 -16.611   2.538  0.00  0.00    +0.066 C 
ENDBRANCH  19  20
ENDBRANCH  18  19
ENDBRANCH  14  15
ENDBRANCH  12  13
TORSDOF 6
ENDMDL
MODEL 2
REMARK VINA RESULT:      -9.0      3.854     13.496
REMARK  Name = C:\Users\Docking\Desktop\test protocol\1iep_ligandH.pdb
REMARK  8 active torsions:
REMARK  status: ('A' for Active; 'I' for Inactive)
REMARK    1  A    between atoms: _5  and  _11
REMARK    2  A    between atoms: _19  and  _21
REMARK    3  A    between atoms: _22  and  _66
REMARK    4  A    between atoms: _27  and  _30
REMARK    5  A    between atoms: _32  and  _33
REMARK    6  A    between atoms: _38  and  _43
REMARK    7  A    between atoms: _43  and  _46
REMARK    8  A    between atoms: _53  and  _55
REMARK                            x       y       z     vdW  Elec       q    Type
REMARK                         _______ _______ _______ _____ _____    ______ ____
ROOT
ATOM     10  C   UNL     1       2.461 -15.507   4.852  0.00  0.00    +0.038 A 
ATOM     11  C   UNL     1       1.106 -15.522   4.434  0.00  0.00    +0.047 A 
ATOM     12  C   UNL     1       0.670 -14.771   3.267  0.00  0.00    +0.035 A 
ATOM     32  C   UNL     1       1.642 -14.018   2.546  0.00  0.00    +0.024 A 
ATOM     33  C   UNL     1       3.023 -13.991   2.957  0.00  0.00    +0.007 A 
ATOM     34  C   UNL     1       3.459 -14.727   4.109  0.00  0.00    -0.029 A 
ATOM     35  C   UNL     1       4.951 -14.657   4.508  0.00  0.00    +0.045 C 
ENDROOT
BRANCH  10   9
ATOM      4  C   UNL     1       3.576 -19.638   7.026  0.00  0.00    +0.077 A 
ATOM      5  C   UNL     1       3.393 -20.391   5.819  0.00  0.00    +0.048 A 
ATOM      6  C   UNL     1       3.005 -19.679   4.662  0.00  0.00    +0.116 A 
ATOM      7  N   UNL     1       2.817 -18.315   4.720  0.00  0.00    -0.223 NA
ATOM      8  C   UNL     1       3.000 -17.619   5.901  0.00  0.00    +0.220 A 
ATOM      9  N   UNL     1       2.824 -16.246   5.980  0.00  0.00    -0.283 N 
ATOM     36  H   UNL     1       2.962 -15.771   6.871  0.00  0.00    +0.155 HD
ATOM     37  N   UNL     1       3.370 -18.276   7.020  0.00  0.00    -0.214 NA
BRANCH   4   3
ATOM      1  C   UNL     1       5.067 -22.066   9.707  0.00  0.00    +0.020 A 
ATOM      2  C   UNL     1       4.690 -21.521   8.422  0.00  0.00    +0.013 A 
ATOM      3  C   UNL     1       3.989 -20.247   8.330  0.00  0.00    +0.019 A 
ATOM     38  C   UNL     1       3.681 -19.543   9.566  0.00  0.00    +0.120 A 
ATOM     39  N   UNL     1       4.054 -20.093  10.788  0.00  0.00    -0.263 NA
ATOM     40  C   UNL     1       4.728 -21.319  10.890  0.00  0.00    +0.111 A 
ENDBRANCH   4   3
ENDBRANCH  10   9
BRANCH  12  13
ATOM     13  N   UNL     1      -0.694 -14.742   2.800  0.00  0.00    -0.281 N 
ATOM     14  C   UNL     1      -1.769 -14.063   3.351  0.00  0.00    +0.248 C 
ATOM     30  O   UNL     1      -1.765 -13.545   4.458  0.00  0.00    -0.270 OA
ATOM     31  H   UNL     1      -0.892 -15.288   1.962  0.00  0.00    +0.155 HD
BRANCH  14  15
ATOM     15  C   UNL     1      -3.035 -13.955   2.565  0.00  0.00    +0.037 A 
ATOM     16  C   UNL     1      -4.180 -14.825   2.845  0.00  0.00    +0.013 A 
ATOM     17  C   UNL     1      -5.383 -14.712   2.060  0.00  0.00    +0.005 A 
ATOM     18  C   UNL     1      -5.449 -13.722   0.987  0.00  0.00    -0.033 A 
ATOM     28  C   UNL     1      -4.300 -12.867   0.735  0.00  0.00    +0.005 A 
ATOM     29  C   UNL     1      -3.118 -12.976   1.501  0.00  0.00    +0.013 A 
BRANCH  18  19
ATOM     19  C   UNL     1      -6.685 -13.546   0.086  0.00  0.00    +0.119 C 
BRANCH  19  20
ATOM     20  N   UNL     1      -7.566 -12.371   0.356  0.00  0.00    -0.302 NA
ATOM     21  C   UNL     1      -6.980 -11.072  -0.205  0.00  0.00    +0.066 C 
ATOM     22  C   UNL     1      -7.925  -9.857   0.066  0.00  0.00    -0.064 C 
ATOM     23  N   UNL     1      -8.174  -9.733   1.570  0.00  0.00    +0.379 N 
ATOM     24  C   UNL     1      -9.015  -8.557   1.834  0.00  0.00    -0.096 C 
ATOM     25  H   UNL     1      -7.188  -9.562   2.062  0.00  0.00    -0.082 HD
ATOM     26  C   UNL     1      -8.754 -11.021   2.137  0.00  0.00    -0.064 C 
ATOM     27  C   UNL     1      -7.821 -12.227   1.836  0.00  0.00    +0.066 C 
ENDBRANCH  19  20
ENDBRANCH  18  19
ENDBRANCH  14  15
ENDBRANCH  12  13
TORSDOF 6
ENDMDL
MODEL 3
REMARK VINA RESULT:      -8.9      2.303     13.116
REMARK  Name = C:\Users\Docking\Desktop\test protocol\1iep_ligandH.pdb
REMARK  8 active torsions:
REMARK  status: ('A' for Active; 'I' for Inactive)
REMARK    1  A    between atoms: _5  and  _11
REMARK    2  A    between atoms: _19  and  _21
REMARK    3  A    between atoms: _22  and  _66
REMARK    4  A    between atoms: _27  and  _30
REMARK    5  A    between atoms: _32  and  _33
REMARK    6  A    between atoms: _38  and  _43
REMARK    7  A    between atoms: _43  and  _46
REMARK    8  A    between atoms: _53  and  _55
REMARK                            x       y       z     vdW  Elec       q    Type
REMARK                         _______ _______ _______ _____ _____    ______ ____
ROOT
ATOM     10  C   UNL     1       0.102 -15.643   5.515  0.00  0.00    +0.038 A 
ATOM     11  C   UNL     1      -0.631 -14.995   4.488  0.00  0.00    +0.047 A 
ATOM     12  C   UNL     1      -2.055 -14.733   4.630  0.00  0.00    +0.035 A 
ATOM     32  C   UNL     1      -2.700 -15.143   5.833  0.00  0.00    +0.024 A 
ATOM     33  C   UNL     1      -1.971 -15.805   6.886  0.00  0.00    +0.007 A 
ATOM     34  C   UNL     1      -0.567 -16.068   6.751  0.00  0.00    -0.029 A 
ATOM     35  C   UNL     1       0.163 -16.786   7.909  0.00  0.00    +0.045 C 
ENDROOT
BRANCH  10   9
ATOM      4  C   UNL     1       4.249 -14.841   3.236  0.00  0.00    +0.077 A 
ATOM      5  C   UNL     1       3.639 -13.913   2.328  0.00  0.00    +0.048 A 
ATOM      6  C   UNL     1       2.254 -13.675   2.476  0.00  0.00    +0.116 A 
ATOM      7  N   UNL     1       1.542 -14.323   3.463  0.00  0.00    -0.223 NA
ATOM      8  C   UNL     1       2.162 -15.213   4.321  0.00  0.00    +0.220 A 
ATOM      9  N   UNL     1       1.467 -15.870   5.325  0.00  0.00    -0.283 N 
ATOM     36  H   UNL     1       1.959 -16.525   5.933  0.00  0.00    +0.155 HD
ATOM     37  N   UNL     1       3.483 -15.458   4.199  0.00  0.00    -0.214 NA
BRANCH   4   3
ATOM      1  C   UNL     1       8.106 -14.834   3.889  0.00  0.00    +0.020 A 
ATOM      2  C   UNL     1       6.714 -14.451   3.950  0.00  0.00    +0.013 A 
ATOM      3  C   UNL     1       5.704 -15.194   3.207  0.00  0.00    +0.019 A 
ATOM     38  C   UNL     1       6.138 -16.330   2.407  0.00  0.00    +0.120 A 
ATOM     39  N   UNL     1       7.485 -16.674   2.367  0.00  0.00    -0.263 NA
ATOM     40  C   UNL     1       8.467 -15.965   3.075  0.00  0.00    +0.111 A 
ENDBRANCH   4   3
ENDBRANCH  10   9
BRANCH  12  13
ATOM     13  N   UNL     1      -2.852 -14.086   3.618  0.00  0.00    -0.281 N 
ATOM     14  C   UNL     1      -3.735 -14.671   2.726  0.00  0.00    +0.248 C 
ATOM     30  O   UNL     1      -3.812 -15.873   2.519  0.00  0.00    -0.270 OA
ATOM     31  H   UNL     1      -2.754 -13.072   3.553  0.00  0.00    +0.155 HD
BRANCH  14  15
ATOM     15  C   UNL     1      -4.654 -13.794   1.939  0.00  0.00    +0.037 A 
ATOM     16  C   UNL     1      -6.094 -13.767   2.208  0.00  0.00    +0.013 A 
ATOM     17  C   UNL     1      -6.961 -12.924   1.422  0.00  0.00    +0.005 A 
ATOM     18  C   UNL     1      -6.388 -12.100   0.360  0.00  0.00    -0.033 A 
ATOM     28  C   UNL     1      -4.956 -12.143   0.118  0.00  0.00    +0.005 A 
ATOM     29  C   UNL     1      -4.103 -12.968   0.885  0.00  0.00    +0.013 A 
BRANCH  18  19
ATOM     19  C   UNL     1      -7.240 -11.188  -0.542  0.00  0.00    +0.119 C 
BRANCH  19  20
ATOM     20  N   UNL     1      -8.648 -10.929  -0.116  0.00  0.00    -0.302 NA
ATOM     21  C   UNL     1      -9.651 -11.779  -0.901  0.00  0.00    +0.066 C 
ATOM     22  C   UNL     1     -11.117 -11.512  -0.428  0.00  0.00    -0.064 C 
ATOM     23  N   UNL     1     -11.435 -10.024  -0.579  0.00  0.00    +0.379 N 
ATOM     24  C   UNL     1     -12.832  -9.779  -0.189  0.00  0.00    -0.096 C 
ATOM     25  H   UNL     1     -11.334  -9.764  -1.658  0.00  0.00    -0.082 HD
ATOM     26  C   UNL     1     -10.441  -9.170   0.196  0.00  0.00    -0.064 C 
ATOM     27  C   UNL     1      -8.985  -9.465  -0.261  0.00  0.00    +0.066 C 
ENDBRANCH  19  20
ENDBRANCH  18  19
ENDBRANCH  14  15
ENDBRANCH  12  13
TORSDOF 6
ENDMDL
MODEL 4
REMARK VINA RESULT:      -8.9      3.216     13.744
REMARK  Name = C:\Users\Docking\Desktop\test protocol\1iep_ligandH.pdb
REMARK  8 active torsions:
REMARK  status: ('A' for Active; 'I' for Inactive)
REMARK    1  A    between atoms: _5  and  _11
REMARK    2  A    between atoms: _19  and  _21
REMARK    3  A    between atoms: _22  and  _66
REMARK    4  A    between atoms: _27  and  _30
REMARK    5  A    between atoms: _32  and  _33
REMARK    6  A    between atoms: _38  and  _43
REMARK    7  A    between atoms: _43  and  _46
REMARK    8  A    between atoms: _53  and  _55
REMARK                            x       y       z     vdW  Elec       q    Type
REMARK                         _______ _______ _______ _____ _____    ______ ____
ROOT
ATOM     10  C   UNL     1       2.964 -14.893   4.345  0.00  0.00    +0.038 A 
ATOM     11  C   UNL     1       1.579 -15.000   4.056  0.00  0.00    +0.047 A 
ATOM     12  C   UNL     1       1.016 -14.425   2.844  0.00  0.00    +0.035 A 
ATOM     32  C   UNL     1       1.894 -13.750   1.946  0.00  0.00    +0.024 A 
ATOM     33  C   UNL     1       3.304 -13.632   2.224  0.00  0.00    +0.007 A 
ATOM     34  C   UNL     1       3.864 -14.195   3.419  0.00  0.00    -0.029 A 
ATOM     35  C   UNL     1       5.381 -14.032   3.669  0.00  0.00    +0.045 C 
ENDROOT
BRANCH  10   9
ATOM      4  C   UNL     1       4.732 -18.593   6.840  0.00  0.00    +0.077 A 
ATOM      5  C   UNL     1       4.655 -19.470   5.707  0.00  0.00    +0.048 A 
ATOM      6  C   UNL     1       4.147 -18.932   4.503  0.00  0.00    +0.116 A 
ATOM      7  N   UNL     1       3.750 -17.614   4.447  0.00  0.00    -0.223 NA
ATOM      8  C   UNL     1       3.836 -16.795   5.559  0.00  0.00    +0.220 A 
ATOM      9  N   UNL     1       3.450 -15.464   5.523  0.00  0.00    -0.283 N 
ATOM     36  H   UNL     1       3.522 -14.896   6.366  0.00  0.00    +0.155 HD
ATOM     37  N   UNL     1       4.316 -17.286   6.721  0.00  0.00    -0.214 NA
BRANCH   4   3
ATOM      1  C   UNL     1       5.382 -18.803  10.691  0.00  0.00    +0.020 A 
ATOM      2  C   UNL     1       4.854 -18.359   9.422  0.00  0.00    +0.013 A 
ATOM      3  C   UNL     1       5.248 -19.013   8.181  0.00  0.00    +0.019 A 
ATOM     38  C   UNL     1       6.185 -20.123   8.259  0.00  0.00    +0.120 A 
ATOM     39  N   UNL     1       6.678 -20.529   9.495  0.00  0.00    -0.263 NA
ATOM     40  C   UNL     1       6.307 -19.906  10.696  0.00  0.00    +0.111 A 
ENDBRANCH   4   3
ENDBRANCH  10   9
BRANCH  12  13
ATOM     13  N   UNL     1      -0.383 -14.495   2.502  0.00  0.00    -0.281 N 
ATOM     14  C   UNL     1      -1.450 -13.900   3.155  0.00  0.00    +0.248 C 
ATOM     30  O   UNL     1      -1.384 -13.389   4.263  0.00  0.00    -0.270 OA
ATOM     31  H   UNL     1      -0.615 -15.051   1.679  0.00  0.00    +0.155 HD
BRANCH  14  15
ATOM     15  C   UNL     1      -2.786 -13.882   2.487  0.00  0.00    +0.037 A 
ATOM     16  C   UNL     1      -3.098 -12.911   1.436  0.00  0.00    +0.013 A 
ATOM     17  C   UNL     1      -4.401 -12.905   0.819  0.00  0.00    +0.005 A 
ATOM     18  C   UNL     1      -5.402 -13.876   1.252  0.00  0.00    -0.033 A 
ATOM     28  C   UNL     1      -5.065 -14.832   2.294  0.00  0.00    +0.005 A 
ATOM     29  C   UNL     1      -3.789 -14.840   2.901  0.00  0.00    +0.013 A 
BRANCH  18  19
ATOM     19  C   UNL     1      -6.825 -13.929   0.665  0.00  0.00    +0.119 C 
BRANCH  19  20
ATOM     20  N   UNL     1      -7.653 -12.690   0.766  0.00  0.00    -0.302 NA
ATOM     21  C   UNL     1      -7.052 -11.530  -0.033  0.00  0.00    +0.066 C 
ATOM     22  C   UNL     1      -7.942 -10.249   0.066  0.00  0.00    -0.064 C 
ATOM     23  N   UNL     1      -8.114  -9.862   1.536  0.00  0.00    +0.379 N 
ATOM     24  C   UNL     1      -8.902  -8.625   1.629  0.00  0.00    -0.096 C 
ATOM     25  H   UNL     1      -7.100  -9.650   1.949  0.00  0.00    -0.082 HD
ATOM     26  C   UNL     1      -8.708 -11.011   2.338  0.00  0.00    -0.064 C 
ATOM     27  C   UNL     1      -7.831 -12.287   2.210  0.00  0.00    +0.066 C 
ENDBRANCH  19  20
ENDBRANCH  18  19
ENDBRANCH  14  15
ENDBRANCH  12  13
TORSDOF 6
ENDMDL
MODEL 5
REMARK VINA RESULT:      -8.7      2.724     13.558
REMARK  Name = C:\Users\Docking\Desktop\test protocol\1iep_ligandH.pdb
REMARK  8 active torsions:
REMARK  status: ('A' for Active; 'I' for Inactive)
REMARK    1  A    between atoms: _5  and  _11
REMARK    2  A    between atoms: _19  and  _21
REMARK    3  A    between atoms: _22  and  _66
REMARK    4  A    between atoms: _27  and  _30
REMARK    5  A    between atoms: _32  and  _33
REMARK    6  A    between atoms: _38  and  _43
REMARK    7  A    between atoms: _43  and  _46
REMARK    8  A    between atoms: _53  and  _55
REMARK                            x       y       z     vdW  Elec       q    Type
REMARK                         _______ _______ _______ _____ _____    ______ ____
ROOT
ATOM     10  C   UNL     1       3.265 -16.395   6.247  0.00  0.00    +0.038 A 
ATOM     11  C   UNL     1       2.090 -15.908   5.618  0.00  0.00    +0.047 A 
ATOM     12  C   UNL     1       0.772 -16.363   6.032  0.00  0.00    +0.035 A 
ATOM     32  C   UNL     1       0.686 -17.313   7.091  0.00  0.00    +0.024 A 
ATOM     33  C   UNL     1       1.870 -17.819   7.741  0.00  0.00    +0.007 A 
ATOM     34  C   UNL     1       3.173 -17.375   7.336  0.00  0.00    -0.029 A 
ATOM     35  C   UNL     1       4.408 -17.957   8.063  0.00  0.00    +0.045 C 
ENDROOT
BRANCH  10   9
ATOM      4  C   UNL     1       7.259 -16.800   3.617  0.00  0.00    +0.077 A 
ATOM      5  C   UNL     1       6.853 -18.070   3.088  0.00  0.00    +0.048 A 
ATOM      6  C   UNL     1       5.613 -18.588   3.524  0.00  0.00    +0.116 A 
ATOM      7  N   UNL     1       4.844 -17.879   4.422  0.00  0.00    -0.223 NA
ATOM      8  C   UNL     1       5.266 -16.657   4.913  0.00  0.00    +0.220 A 
ATOM      9  N   UNL     1       4.505 -15.924   5.810  0.00  0.00    -0.283 N 
ATOM     36  H   UNL     1       4.855 -15.030   6.155  0.00  0.00    +0.155 HD
ATOM     37  N   UNL     1       6.447 -16.142   4.514  0.00  0.00    -0.214 NA
BRANCH   4   3
ATOM      1  C   UNL     1      10.715 -15.983   1.975  0.00  0.00    +0.020 A 
ATOM      2  C   UNL     1       9.490 -16.680   2.296  0.00  0.00    +0.013 A 
ATOM      3  C   UNL     1       8.542 -16.120   3.250  0.00  0.00    +0.019 A 
ATOM     38  C   UNL     1       8.864 -14.842   3.866  0.00  0.00    +0.120 A 
ATOM     39  N   UNL     1      10.051 -14.194   3.540  0.00  0.00    -0.263 NA
ATOM     40  C   UNL     1      10.972 -14.724   2.624  0.00  0.00    +0.111 A 
ENDBRANCH   4   3
ENDBRANCH  10   9
BRANCH  12  13
ATOM     13  N   UNL     1      -0.455 -15.911   5.425  0.00  0.00    -0.281 N 
ATOM     14  C   UNL     1      -0.680 -14.730   4.736  0.00  0.00    +0.248 C 
ATOM     30  O   UNL     1       0.090 -13.781   4.721  0.00  0.00    -0.270 OA
ATOM     31  H   UNL     1      -1.256 -16.537   5.514  0.00  0.00    +0.155 HD
BRANCH  14  15
ATOM     15  C   UNL     1      -1.950 -14.576   3.963  0.00  0.00    +0.037 A 
ATOM     16  C   UNL     1      -2.022 -13.708   2.785  0.00  0.00    +0.013 A 
ATOM     17  C   UNL     1      -3.264 -13.563   2.068  0.00  0.00    +0.005 A 
ATOM     18  C   UNL     1      -4.445 -14.290   2.528  0.00  0.00    -0.033 A 
ATOM     28  C   UNL     1      -4.344 -15.148   3.697  0.00  0.00    +0.005 A 
ATOM     29  C   UNL     1      -3.129 -15.292   4.402  0.00  0.00    +0.013 A 
BRANCH  18  19
ATOM     19  C   UNL     1      -5.817 -14.179   1.836  0.00  0.00    +0.119 C 
BRANCH  19  20
ATOM     20  N   UNL     1      -6.320 -12.807   1.531  0.00  0.00    -0.302 NA
ATOM     21  C   UNL     1      -7.796 -12.640   1.901  0.00  0.00    +0.066 C 
ATOM     22  C   UNL     1      -8.300 -11.192   1.596  0.00  0.00    -0.064 C 
ATOM     23  N   UNL     1      -8.073 -10.877   0.117  0.00  0.00    +0.379 N 
ATOM     24  C   UNL     1      -8.599  -9.538  -0.186  0.00  0.00    -0.096 C 
ATOM     25  H   UNL     1      -8.661 -11.614  -0.479  0.00  0.00    -0.082 HD
ATOM     26  C   UNL     1      -6.608 -11.043  -0.260  0.00  0.00    -0.064 C 
ATOM     27  C   UNL     1      -6.110 -12.476   0.074  0.00  0.00    +0.066 C 
ENDBRANCH  19  20
ENDBRANCH  18  19
ENDBRANCH  14  15
ENDBRANCH  12  13
TORSDOF 6
ENDMDL
