MODEL 1
REMARK VINA RESULT:      -7.9      0.000      0.000
REMARK  Name = C:\Users\Docking\Desktop\test protocol\1iep_ligandH.pdb
REMARK  8 active torsions:
REMARK  status: ('A' for Active; 'I' for Inactive)
REMARK    1  A    between atoms: _5  and  _11
REMARK    2  A    between atoms: _19  and  _21
REMARK    3  A    between atoms: _22  and  _66
REMARK    4  A    between atoms: _27  and  _30
REMARK    5  A    between atoms: _32  and  _33
REMARK    6  A    between atoms: _38  and  _43
REMARK    7  A    between atoms: _43  and  _46
REMARK    8  A    between atoms: _53  and  _55
REMARK                            x       y       z     vdW  Elec       q    Type
REMARK                         _______ _______ _______ _____ _____    ______ ____
ROOT
ATOM     10  C   UNL     1     -19.751   3.124 -26.003  0.00  0.00    +0.038 A 
ATOM     11  C   UNL     1     -19.665   1.781 -25.556  0.00  0.00    +0.047 A 
ATOM     12  C   UNL     1     -19.550   1.465 -24.141  0.00  0.00    +0.035 A 
ATOM     32  C   UNL     1     -19.528   2.542 -23.207  0.00  0.00    +0.024 A 
ATOM     33  C   UNL     1     -19.613   3.913 -23.644  0.00  0.00    +0.007 A 
ATOM     34  C   UNL     1     -19.724   4.231 -25.039  0.00  0.00    -0.029 A 
ATOM     35  C   UNL     1     -19.806   5.720 -25.451  0.00  0.00    +0.045 C 
ENDROOT
BRANCH  10   9
ATOM      4  C   UNL     1     -17.910   4.503 -30.216  0.00  0.00    +0.077 A 
ATOM      5  C   UNL     1     -16.629   4.781 -29.632  0.00  0.00    +0.048 A 
ATOM      6  C   UNL     1     -16.488   4.563 -28.243  0.00  0.00    +0.116 A 
ATOM      7  N   UNL     1     -17.554   4.101 -27.503  0.00  0.00    -0.223 NA
ATOM      8  C   UNL     1     -18.776   3.844 -28.097  0.00  0.00    +0.220 A 
ATOM      9  N   UNL     1     -19.860   3.371 -27.373  0.00  0.00    -0.283 N 
ATOM     36  H   UNL     1     -20.747   3.200 -27.847  0.00  0.00    +0.155 HD
ATOM     37  N   UNL     1     -18.937   4.045 -29.421  0.00  0.00    -0.214 NA
BRANCH   4   3
ATOM      1  C   UNL     1     -18.210   6.018 -33.809  0.00  0.00    +0.020 A 
ATOM      2  C   UNL     1     -17.895   5.898 -32.404  0.00  0.00    +0.013 A 
ATOM      3  C   UNL     1     -18.214   4.680 -31.671  0.00  0.00    +0.019 A 
ATOM     38  C   UNL     1     -18.857   3.593 -32.394  0.00  0.00    +0.120 A 
ATOM     39  N   UNL     1     -19.150   3.738 -33.746  0.00  0.00    -0.263 NA
ATOM     40  C   UNL     1     -18.849   4.906 -34.462  0.00  0.00    +0.111 A 
ENDBRANCH   4   3
ENDBRANCH  10   9
BRANCH  12  13
ATOM     13  N   UNL     1     -19.451   0.120 -23.629  0.00  0.00    -0.281 N 
ATOM     14  C   UNL     1     -20.384  -0.576 -22.877  0.00  0.00    +0.248 C 
ATOM     30  O   UNL     1     -21.362  -0.069 -22.348  0.00  0.00    -0.270 OA
ATOM     31  H   UNL     1     -18.588  -0.379 -23.846  0.00  0.00    +0.155 HD
BRANCH  14  15
ATOM     15  C   UNL     1     -20.196  -2.044 -22.673  0.00  0.00    +0.037 A 
ATOM     16  C   UNL     1     -21.266  -2.877 -22.118  0.00  0.00    +0.013 A 
ATOM     17  C   UNL     1     -21.052  -4.288 -21.915  0.00  0.00    +0.005 A 
ATOM     18  C   UNL     1     -19.762  -4.875 -22.269  0.00  0.00    -0.033 A 
ATOM     28  C   UNL     1     -18.720  -4.027 -22.822  0.00  0.00    +0.005 A 
ATOM     29  C   UNL     1     -18.925  -2.643 -23.021  0.00  0.00    +0.013 A 
BRANCH  18  19
ATOM     19  C   UNL     1     -19.438  -6.368 -22.066  0.00  0.00    +0.119 C 
BRANCH  19  20
ATOM     20  N   UNL     1     -18.751  -7.076 -23.186  0.00  0.00    -0.302 NA
ATOM     21  C   UNL     1     -19.612  -7.123 -24.452  0.00  0.00    +0.066 C 
ATOM     22  C   UNL     1     -18.869  -7.848 -25.620  0.00  0.00    -0.064 C 
ATOM     23  N   UNL     1     -18.482  -9.259 -25.177  0.00  0.00    +0.379 N 
ATOM     24  C   UNL     1     -17.834  -9.964 -26.293  0.00  0.00    -0.096 C 
ATOM     25  H   UNL     1     -19.422  -9.806 -24.931  0.00  0.00    -0.082 HD
ATOM     26  C   UNL     1     -17.627  -9.223 -23.918  0.00  0.00    -0.064 C 
ATOM     27  C   UNL     1     -18.364  -8.474 -22.772  0.00  0.00    +0.066 C 
ENDBRANCH  19  20
ENDBRANCH  18  19
ENDBRANCH  14  15
ENDBRANCH  12  13
TORSDOF 6
ENDMDL
MODEL 2
REMARK VINA RESULT:      -7.9      9.659     14.502
REMARK  Name = C:\Users\Docking\Desktop\test protocol\1iep_ligandH.pdb
REMARK  8 active torsions:
REMARK  status: ('A' for Active; 'I' for Inactive)
REMARK    1  A    between atoms: _5  and  _11
REMARK    2  A    between atoms: _19  and  _21
REMARK    3  A    between atoms: _22  and  _66
REMARK    4  A    between atoms: _27  and  _30
REMARK    5  A    between atoms: _32  and  _33
REMARK    6  A    between atoms: _38  and  _43
REMARK    7  A    between atoms: _43  and  _46
REMARK    8  A    between atoms: _53  and  _55
REMARK                            x       y       z     vdW  Elec       q    Type
REMARK                         _______ _______ _______ _____ _____    ______ ____
ROOT
ATOM     10  C   UNL     1     -18.135  -8.490 -24.003  0.00  0.00    +0.038 A 
ATOM     11  C   UNL     1     -17.243  -9.575 -24.202  0.00  0.00    +0.047 A 
ATOM     12  C   UNL     1     -16.789  -9.941 -25.535  0.00  0.00    +0.035 A 
ATOM     32  C   UNL     1     -17.261  -9.179 -26.642  0.00  0.00    +0.024 A 
ATOM     33  C   UNL     1     -18.169  -8.074 -26.459  0.00  0.00    +0.007 A 
ATOM     34  C   UNL     1     -18.622  -7.710 -25.147  0.00  0.00    -0.029 A 
ATOM     35  C   UNL     1     -19.601  -6.520 -25.010  0.00  0.00    +0.045 C 
ENDROOT
BRANCH  10   9
ATOM      4  C   UNL     1     -21.399  -8.440 -20.485  0.00  0.00    +0.077 A 
ATOM      5  C   UNL     1     -22.393  -9.055 -21.318  0.00  0.00    +0.048 A 
ATOM      6  C   UNL     1     -22.026  -9.362 -22.647  0.00  0.00    +0.116 A 
ATOM      7  N   UNL     1     -20.757  -9.071 -23.099  0.00  0.00    -0.223 NA
ATOM      8  C   UNL     1     -19.823  -8.476 -22.271  0.00  0.00    +0.220 A 
ATOM      9  N   UNL     1     -18.539  -8.183 -22.702  0.00  0.00    -0.283 N 
ATOM     36  H   UNL     1     -17.882  -7.737 -22.062  0.00  0.00    +0.155 HD
ATOM     37  N   UNL     1     -20.150  -8.172 -20.997  0.00  0.00    -0.214 NA
BRANCH   4   3
ATOM      1  C   UNL     1     -21.580  -8.531 -16.579  0.00  0.00    +0.020 A 
ATOM      2  C   UNL     1     -21.335  -8.948 -17.940  0.00  0.00    +0.013 A 
ATOM      3  C   UNL     1     -21.634  -8.059 -19.056  0.00  0.00    +0.019 A 
ATOM     38  C   UNL     1     -22.185  -6.746 -18.758  0.00  0.00    +0.120 A 
ATOM     39  N   UNL     1     -22.412  -6.372 -17.437  0.00  0.00    -0.263 NA
ATOM     40  C   UNL     1     -22.129  -7.219 -16.355  0.00  0.00    +0.111 A 
ENDBRANCH   4   3
ENDBRANCH  10   9
BRANCH  12  13
ATOM     13  N   UNL     1     -15.890 -11.038 -25.799  0.00  0.00    -0.281 N 
ATOM     14  C   UNL     1     -14.574 -11.177 -25.390  0.00  0.00    +0.248 C 
ATOM     30  O   UNL     1     -13.899 -10.277 -24.912  0.00  0.00    -0.270 OA
ATOM     31  H   UNL     1     -16.271 -11.804 -26.354  0.00  0.00    +0.155 HD
BRANCH  14  15
ATOM     15  C   UNL     1     -13.906 -12.505 -25.548  0.00  0.00    +0.037 A 
ATOM     16  C   UNL     1     -13.639 -13.068 -26.874  0.00  0.00    +0.013 A 
ATOM     17  C   UNL     1     -13.008 -14.359 -26.997  0.00  0.00    +0.005 A 
ATOM     18  C   UNL     1     -12.639 -15.094 -25.790  0.00  0.00    -0.033 A 
ATOM     28  C   UNL     1     -12.911 -14.509 -24.488  0.00  0.00    +0.005 A 
ATOM     29  C   UNL     1     -13.530 -13.245 -24.362  0.00  0.00    +0.013 A 
BRANCH  18  19
ATOM     19  C   UNL     1     -11.982 -16.487 -25.827  0.00  0.00    +0.119 C 
BRANCH  19  20
ATOM     20  N   UNL     1     -12.722 -17.610 -25.178  0.00  0.00    -0.302 NA
ATOM     21  C   UNL     1     -11.775 -18.620 -24.526  0.00  0.00    +0.066 C 
ATOM     22  C   UNL     1     -12.567 -19.776 -23.832  0.00  0.00    -0.064 C 
ATOM     23  N   UNL     1     -13.466 -20.463 -24.861  0.00  0.00    +0.379 N 
ATOM     24  C   UNL     1     -14.169 -21.588 -24.225  0.00  0.00    -0.096 C 
ATOM     25  H   UNL     1     -12.809 -20.882 -25.658  0.00  0.00    -0.082 HD
ATOM     26  C   UNL     1     -14.410 -19.465 -25.517  0.00  0.00    -0.064 C 
ATOM     27  C   UNL     1     -13.614 -18.305 -26.177  0.00  0.00    +0.066 C 
ENDBRANCH  19  20
ENDBRANCH  18  19
ENDBRANCH  14  15
ENDBRANCH  12  13
TORSDOF 6
ENDMDL
MODEL 3
REMARK VINA RESULT:      -7.9      1.977      2.231
REMARK  Name = C:\Users\Docking\Desktop\test protocol\1iep_ligandH.pdb
REMARK  8 active torsions:
REMARK  status: ('A' for Active; 'I' for Inactive)
REMARK    1  A    between atoms: _5  and  _11
REMARK    2  A    between atoms: _19  and  _21
REMARK    3  A    between atoms: _22  and  _66
REMARK    4  A    between atoms: _27  and  _30
REMARK    5  A    between atoms: _32  and  _33
REMARK    6  A    between atoms: _38  and  _43
REMARK    7  A    between atoms: _43  and  _46
REMARK    8  A    between atoms: _53  and  _55
REMARK                            x       y       z     vdW  Elec       q    Type
REMARK                         _______ _______ _______ _____ _____    ______ ____
ROOT
ATOM     10  C   UNL     1     -19.575   3.019 -26.404  0.00  0.00    +0.038 A 
ATOM     11  C   UNL     1     -19.302   1.672 -26.056  0.00  0.00    +0.047 A 
ATOM     12  C   UNL     1     -19.136   1.272 -24.667  0.00  0.00    +0.035 A 
ATOM     32  C   UNL     1     -19.257   2.272 -23.657  0.00  0.00    +0.024 A 
ATOM     33  C   UNL     1     -19.533   3.646 -23.994  0.00  0.00    +0.007 A 
ATOM     34  C   UNL     1     -19.695   4.046 -25.362  0.00  0.00    -0.029 A 
ATOM     35  C   UNL     1     -19.983   5.535 -25.665  0.00  0.00    +0.045 C 
ENDROOT
BRANCH  10   9
ATOM      4  C   UNL     1     -17.868   4.679 -30.572  0.00  0.00    +0.077 A 
ATOM      5  C   UNL     1     -16.576   4.940 -30.006  0.00  0.00    +0.048 A 
ATOM      6  C   UNL     1     -16.394   4.640 -28.638  0.00  0.00    +0.116 A 
ATOM      7  N   UNL     1     -17.433   4.118 -27.899  0.00  0.00    -0.223 NA
ATOM      8  C   UNL     1     -18.668   3.879 -28.475  0.00  0.00    +0.220 A 
ATOM      9  N   UNL     1     -19.725   3.347 -27.753  0.00  0.00    -0.283 N 
ATOM     36  H   UNL     1     -20.622   3.192 -28.213  0.00  0.00    +0.155 HD
ATOM     37  N   UNL     1     -18.867   4.158 -29.780  0.00  0.00    -0.214 NA
BRANCH   4   3
ATOM      1  C   UNL     1     -18.305   6.412 -34.051  0.00  0.00    +0.020 A 
ATOM      2  C   UNL     1     -17.951   6.212 -32.665  0.00  0.00    +0.013 A 
ATOM      3  C   UNL     1     -18.215   4.939 -32.005  0.00  0.00    +0.019 A 
ATOM     38  C   UNL     1     -18.843   3.882 -32.782  0.00  0.00    +0.120 A 
ATOM     39  N   UNL     1     -19.174   4.104 -34.115  0.00  0.00    -0.263 NA
ATOM     40  C   UNL     1     -18.927   5.325 -34.760  0.00  0.00    +0.111 A 
ENDBRANCH   4   3
ENDBRANCH  10   9
BRANCH  12  13
ATOM     13  N   UNL     1     -18.850  -0.079 -24.253  0.00  0.00    -0.281 N 
ATOM     14  C   UNL     1     -17.678  -0.571 -23.703  0.00  0.00    +0.248 C 
ATOM     30  O   UNL     1     -16.617   0.035 -23.680  0.00  0.00    -0.270 OA
ATOM     31  H   UNL     1     -19.603  -0.755 -24.381  0.00  0.00    +0.155 HD
BRANCH  14  15
ATOM     15  C   UNL     1     -17.681  -1.941 -23.104  0.00  0.00    +0.037 A 
ATOM     16  C   UNL     1     -17.177  -3.097 -23.850  0.00  0.00    +0.013 A 
ATOM     17  C   UNL     1     -17.207  -4.410 -23.255  0.00  0.00    +0.005 A 
ATOM     18  C   UNL     1     -17.742  -4.573 -21.905  0.00  0.00    -0.033 A 
ATOM     28  C   UNL     1     -18.230  -3.408 -21.186  0.00  0.00    +0.005 A 
ATOM     29  C   UNL     1     -18.203  -2.120 -21.766  0.00  0.00    +0.013 A 
BRANCH  18  19
ATOM     19  C   UNL     1     -17.832  -5.939 -21.200  0.00  0.00    +0.119 C 
BRANCH  19  20
ATOM     20  N   UNL     1     -18.758  -6.952 -21.788  0.00  0.00    -0.302 NA
ATOM     21  C   UNL     1     -20.150  -6.371 -22.055  0.00  0.00    +0.066 C 
ATOM     22  C   UNL     1     -21.100  -7.437 -22.691  0.00  0.00    -0.064 C 
ATOM     23  N   UNL     1     -21.189  -8.653 -21.766  0.00  0.00    +0.379 N 
ATOM     24  C   UNL     1     -22.126  -9.633 -22.333  0.00  0.00    -0.096 C 
ATOM     25  H   UNL     1     -21.608  -8.308 -20.793  0.00  0.00    -0.082 HD
ATOM     26  C   UNL     1     -19.809  -9.235 -21.494  0.00  0.00    -0.064 C 
ATOM     27  C   UNL     1     -18.864  -8.159 -20.890  0.00  0.00    +0.066 C 
ENDBRANCH  19  20
ENDBRANCH  18  19
ENDBRANCH  14  15
ENDBRANCH  12  13
TORSDOF 6
ENDMDL
MODEL 4
REMARK VINA RESULT:      -7.9      8.565     12.364
REMARK  Name = C:\Users\Docking\Desktop\test protocol\1iep_ligandH.pdb
REMARK  8 active torsions:
REMARK  status: ('A' for Active; 'I' for Inactive)
REMARK    1  A    between atoms: _5  and  _11
REMARK    2  A    between atoms: _19  and  _21
REMARK    3  A    between atoms: _22  and  _66
REMARK    4  A    between atoms: _27  and  _30
REMARK    5  A    between atoms: _32  and  _33
REMARK    6  A    between atoms: _38  and  _43
REMARK    7  A    between atoms: _43  and  _46
REMARK    8  A    between atoms: _53  and  _55
REMARK                            x       y       z     vdW  Elec       q    Type
REMARK                         _______ _______ _______ _____ _____    ______ ____
ROOT
ATOM     10  C   UNL     1     -20.929  -4.463 -19.991  0.00  0.00    +0.038 A 
ATOM     11  C   UNL     1     -22.106  -3.759 -20.353  0.00  0.00    +0.047 A 
ATOM     12  C   UNL     1     -22.952  -3.139 -19.345  0.00  0.00    +0.035 A 
ATOM     32  C   UNL     1     -22.567  -3.253 -17.977  0.00  0.00    +0.024 A 
ATOM     33  C   UNL     1     -21.374  -3.965 -17.592  0.00  0.00    +0.007 A 
ATOM     34  C   UNL     1     -20.537  -4.581 -18.581  0.00  0.00    -0.029 A 
ATOM     35  C   UNL     1     -19.274  -5.337 -18.110  0.00  0.00    +0.045 C 
ENDROOT
BRANCH  10   9
ATOM      4  C   UNL     1     -20.036  -7.935 -23.182  0.00  0.00    +0.077 A 
ATOM      5  C   UNL     1     -21.198  -8.679 -22.786  0.00  0.00    +0.048 A 
ATOM      6  C   UNL     1     -21.995  -8.136 -21.753  0.00  0.00    +0.116 A 
ATOM      7  N   UNL     1     -21.646  -6.939 -21.167  0.00  0.00    -0.223 NA
ATOM      8  C   UNL     1     -20.519  -6.248 -21.571  0.00  0.00    +0.220 A 
ATOM      9  N   UNL     1     -20.154  -5.038 -21.000  0.00  0.00    -0.283 N 
ATOM     36  H   UNL     1     -19.310  -4.564 -21.321  0.00  0.00    +0.155 HD
ATOM     37  N   UNL     1     -19.740  -6.746 -22.554  0.00  0.00    -0.214 NA
BRANCH   4   3
ATOM      1  C   UNL     1     -17.116  -9.694 -25.100  0.00  0.00    +0.020 A 
ATOM      2  C   UNL     1     -17.995  -9.300 -24.023  0.00  0.00    +0.013 A 
ATOM      3  C   UNL     1     -19.097  -8.376 -24.261  0.00  0.00    +0.019 A 
ATOM     38  C   UNL     1     -19.285  -7.867 -25.611  0.00  0.00    +0.120 A 
ATOM     39  N   UNL     1     -18.422  -8.263 -26.628  0.00  0.00    -0.263 NA
ATOM     40  C   UNL     1     -17.357  -9.150 -26.411  0.00  0.00    +0.111 A 
ENDBRANCH   4   3
ENDBRANCH  10   9
BRANCH  12  13
ATOM     13  N   UNL     1     -24.163  -2.419 -19.651  0.00  0.00    -0.281 N 
ATOM     14  C   UNL     1     -24.352  -1.047 -19.691  0.00  0.00    +0.248 C 
ATOM     30  O   UNL     1     -23.556  -0.228 -19.257  0.00  0.00    -0.270 OA
ATOM     31  H   UNL     1     -24.981  -2.990 -19.865  0.00  0.00    +0.155 HD
BRANCH  14  15
ATOM     15  C   UNL     1     -25.613  -0.509 -20.285  0.00  0.00    +0.037 A 
ATOM     16  C   UNL     1     -26.912  -0.738 -19.647  0.00  0.00    +0.013 A 
ATOM     17  C   UNL     1     -28.115  -0.222 -20.251  0.00  0.00    +0.005 A 
ATOM     18  C   UNL     1     -28.024   0.531 -21.499  0.00  0.00    -0.033 A 
ATOM     28  C   UNL     1     -26.722   0.748 -22.107  0.00  0.00    +0.005 A 
ATOM     29  C   UNL     1     -25.541   0.243 -21.520  0.00  0.00    +0.013 A 
BRANCH  18  19
ATOM     19  C   UNL     1     -29.258   1.100 -22.224  0.00  0.00    +0.119 C 
BRANCH  19  20
ATOM     20  N   UNL     1     -29.797   0.316 -23.375  0.00  0.00    -0.302 NA
ATOM     21  C   UNL     1     -30.753   1.145 -24.237  0.00  0.00    +0.066 C 
ATOM     22  C   UNL     1     -31.290   0.317 -25.450  0.00  0.00    -0.064 C 
ATOM     23  N   UNL     1     -31.982  -0.947 -24.934  0.00  0.00    +0.379 N 
ATOM     24  C   UNL     1     -32.538  -1.699 -26.068  0.00  0.00    -0.096 C 
ATOM     25  H   UNL     1     -32.833  -0.627 -24.290  0.00  0.00    -0.082 HD
ATOM     26  C   UNL     1     -31.038  -1.775 -24.074  0.00  0.00    -0.064 C 
ATOM     27  C   UNL     1     -30.488  -0.934 -22.889  0.00  0.00    +0.066 C 
ENDBRANCH  19  20
ENDBRANCH  18  19
ENDBRANCH  14  15
ENDBRANCH  12  13
TORSDOF 6
ENDMDL
MODEL 5
REMARK VINA RESULT:      -7.8      3.430     12.979
REMARK  Name = C:\Users\Docking\Desktop\test protocol\1iep_ligandH.pdb
REMARK  8 active torsions:
REMARK  status: ('A' for Active; 'I' for Inactive)
REMARK    1  A    between atoms: _5  and  _11
REMARK    2  A    between atoms: _19  and  _21
REMARK    3  A    between atoms: _22  and  _66
REMARK    4  A    between atoms: _27  and  _30
REMARK    5  A    between atoms: _32  and  _33
REMARK    6  A    between atoms: _38  and  _43
REMARK    7  A    between atoms: _43  and  _46
REMARK    8  A    between atoms: _53  and  _55
REMARK                            x       y       z     vdW  Elec       q    Type
REMARK                         _______ _______ _______ _____ _____    ______ ____
ROOT
ATOM     10  C   UNL     1     -18.033   2.598 -26.196  0.00  0.00    +0.038 A 
ATOM     11  C   UNL     1     -18.496   2.893 -27.504  0.00  0.00    +0.047 A 
ATOM     12  C   UNL     1     -18.175   4.157 -28.148  0.00  0.00    +0.035 A 
ATOM     32  C   UNL     1     -17.379   5.098 -27.432  0.00  0.00    +0.024 A 
ATOM     33  C   UNL     1     -16.902   4.815 -26.101  0.00  0.00    +0.007 A 
ATOM     34  C   UNL     1     -17.217   3.571 -25.460  0.00  0.00    -0.029 A 
ATOM     35  C   UNL     1     -16.683   3.324 -24.029  0.00  0.00    +0.045 C 
ENDROOT
BRANCH  10   9
ATOM      4  C   UNL     1     -20.591  -0.100 -23.161  0.00  0.00    +0.077 A 
ATOM      5  C   UNL     1     -21.297   1.040 -22.649  0.00  0.00    +0.048 A 
ATOM      6  C   UNL     1     -20.967   2.303 -23.188  0.00  0.00    +0.116 A 
ATOM      7  N   UNL     1     -20.002   2.407 -24.167  0.00  0.00    -0.223 NA
ATOM      8  C   UNL     1     -19.339   1.288 -24.637  0.00  0.00    +0.220 A 
ATOM      9  N   UNL     1     -18.371   1.369 -25.626  0.00  0.00    -0.283 N 
ATOM     36  H   UNL     1     -17.899   0.521 -25.940  0.00  0.00    +0.155 HD
ATOM     37  N   UNL     1     -19.635   0.071 -24.137  0.00  0.00    -0.214 NA
BRANCH   4   3
ATOM      1  C   UNL     1     -22.313  -3.342 -21.810  0.00  0.00    +0.020 A 
ATOM      2  C   UNL     1     -22.135  -1.978 -22.252  0.00  0.00    +0.013 A 
ATOM      3  C   UNL     1     -20.831  -1.502 -22.694  0.00  0.00    +0.019 A 
ATOM     38  C   UNL     1     -19.718  -2.439 -22.678  0.00  0.00    +0.120 A 
ATOM     39  N   UNL     1     -19.918  -3.747 -22.246  0.00  0.00    -0.263 NA
ATOM     40  C   UNL     1     -21.169  -4.216 -21.817  0.00  0.00    +0.111 A 
ENDBRANCH   4   3
ENDBRANCH  10   9
BRANCH  12  13
ATOM     13  N   UNL     1     -18.624   4.516 -29.471  0.00  0.00    -0.281 N 
ATOM     14  C   UNL     1     -17.858   4.685 -30.613  0.00  0.00    +0.248 C 
ATOM     30  O   UNL     1     -16.638   4.762 -30.622  0.00  0.00    -0.270 OA
ATOM     31  H   UNL     1     -19.627   4.663 -29.579  0.00  0.00    +0.155 HD
BRANCH  14  15
ATOM     15  C   UNL     1     -18.547   4.798 -31.934  0.00  0.00    +0.037 A 
ATOM     16  C   UNL     1     -19.995   5.002 -32.021  0.00  0.00    +0.013 A 
ATOM     17  C   UNL     1     -20.637   5.091 -33.308  0.00  0.00    +0.005 A 
ATOM     18  C   UNL     1     -19.830   4.978 -34.521  0.00  0.00    -0.033 A 
ATOM     28  C   UNL     1     -18.394   4.782 -34.406  0.00  0.00    +0.005 A 
ATOM     29  C   UNL     1     -17.762   4.693 -33.146  0.00  0.00    +0.013 A 
BRANCH  18  19
ATOM     19  C   UNL     1     -20.434   5.040 -35.936  0.00  0.00    +0.119 C 
BRANCH  19  20
ATOM     20  N   UNL     1     -19.544   5.514 -37.039  0.00  0.00    -0.302 NA
ATOM     21  C   UNL     1     -19.334   7.030 -36.996  0.00  0.00    +0.066 C 
ATOM     22  C   UNL     1     -18.383   7.505 -38.142  0.00  0.00    -0.064 C 
ATOM     23  N   UNL     1     -18.962   7.077 -39.492  0.00  0.00    +0.379 N 
ATOM     24  C   UNL     1     -18.100   7.572 -40.575  0.00  0.00    -0.096 C 
ATOM     25  H   UNL     1     -19.959   7.564 -39.602  0.00  0.00    -0.082 HD
ATOM     26  C   UNL     1     -19.177   5.571 -39.542  0.00  0.00    -0.064 C 
ATOM     27  C   UNL     1     -20.099   5.105 -38.381  0.00  0.00    +0.066 C 
ENDBRANCH  19  20
ENDBRANCH  18  19
ENDBRANCH  14  15
ENDBRANCH  12  13
TORSDOF 6
ENDMDL
