MODEL 1
REMARK VINA RESULT:      -8.1      0.000      0.000
REMARK  Name = C:\Users\Docking\Desktop\test protocol\1iep_ligandH.pdb
REMARK  8 active torsions:
REMARK  status: ('A' for Active; 'I' for Inactive)
REMARK    1  A    between atoms: _5  and  _11
REMARK    2  A    between atoms: _19  and  _21
REMARK    3  A    between atoms: _22  and  _66
REMARK    4  A    between atoms: _27  and  _30
REMARK    5  A    between atoms: _32  and  _33
REMARK    6  A    between atoms: _38  and  _43
REMARK    7  A    between atoms: _43  and  _46
REMARK    8  A    between atoms: _53  and  _55
REMARK                            x       y       z     vdW  Elec       q    Type
REMARK                         _______ _______ _______ _____ _____    ______ ____
ROOT
ATOM     10  C   UNL     1       3.198 -17.525  28.929  0.00  0.00    +0.038 A 
ATOM     11  C   UNL     1       3.514 -18.237  30.114  0.00  0.00    +0.047 A 
ATOM     12  C   UNL     1       4.502 -17.731  31.055  0.00  0.00    +0.035 A 
ATOM     32  C   UNL     1       5.148 -16.496  30.757  0.00  0.00    +0.024 A 
ATOM     33  C   UNL     1       4.840 -15.760  29.556  0.00  0.00    +0.007 A 
ATOM     34  C   UNL     1       3.868 -16.255  28.624  0.00  0.00    -0.029 A 
ATOM     35  C   UNL     1       3.582 -15.427  27.349  0.00  0.00    +0.045 C 
ENDROOT
BRANCH  10   9
ATOM      4  C   UNL     1       1.945 -20.051  25.045  0.00  0.00    +0.077 A 
ATOM      5  C   UNL     1       3.313 -20.312  24.700  0.00  0.00    +0.048 A 
ATOM      6  C   UNL     1       4.309 -19.772  25.544  0.00  0.00    +0.116 A 
ATOM      7  N   UNL     1       3.952 -19.028  26.648  0.00  0.00    -0.223 NA
ATOM      8  C   UNL     1       2.623 -18.794  26.951  0.00  0.00    +0.220 A 
ATOM      9  N   UNL     1       2.241 -18.056  28.061  0.00  0.00    -0.283 N 
ATOM     36  H   UNL     1       1.251 -17.899  28.246  0.00  0.00    +0.155 HD
ATOM     37  N   UNL     1       1.653 -19.298  26.160  0.00  0.00    -0.214 NA
BRANCH   4   3
ATOM      1  C   UNL     1      -0.282 -22.130  22.591  0.00  0.00    +0.020 A 
ATOM      2  C   UNL     1       0.875 -21.681  23.332  0.00  0.00    +0.013 A 
ATOM      3  C   UNL     1       0.779 -20.556  24.253  0.00  0.00    +0.019 A 
ATOM     38  C   UNL     1      -0.512 -19.901  24.403  0.00  0.00    +0.120 A 
ATOM     39  N   UNL     1      -1.608 -20.354  23.675  0.00  0.00    -0.263 NA
ATOM     40  C   UNL     1      -1.527 -21.436  22.785  0.00  0.00    +0.111 A 
ENDBRANCH   4   3
ENDBRANCH  10   9
BRANCH  12  13
ATOM     13  N   UNL     1       4.870 -18.414  32.270  0.00  0.00    -0.281 N 
ATOM     14  C   UNL     1       5.848 -18.059  33.184  0.00  0.00    +0.248 C 
ATOM     30  O   UNL     1       6.705 -17.211  32.984  0.00  0.00    -0.270 OA
ATOM     31  H   UNL     1       4.345 -19.263  32.483  0.00  0.00    +0.155 HD
BRANCH  14  15
ATOM     15  C   UNL     1       5.889 -18.756  34.506  0.00  0.00    +0.037 A 
ATOM     16  C   UNL     1       4.900 -19.777  34.857  0.00  0.00    +0.013 A 
ATOM     17  C   UNL     1       4.952 -20.422  36.145  0.00  0.00    +0.005 A 
ATOM     18  C   UNL     1       6.000 -20.048  37.091  0.00  0.00    -0.033 A 
ATOM     28  C   UNL     1       6.972 -19.035  36.715  0.00  0.00    +0.005 A 
ATOM     29  C   UNL     1       6.923 -18.400  35.454  0.00  0.00    +0.013 A 
BRANCH  18  19
ATOM     19  C   UNL     1       6.119 -20.668  38.496  0.00  0.00    +0.119 C 
BRANCH  19  20
ATOM     20  N   UNL     1       4.849 -21.016  39.200  0.00  0.00    -0.302 NA
ATOM     21  C   UNL     1       4.765 -20.369  40.586  0.00  0.00    +0.066 C 
ATOM     22  C   UNL     1       3.420 -20.725  41.299  0.00  0.00    -0.064 C 
ATOM     23  N   UNL     1       3.287 -22.246  41.402  0.00  0.00    +0.379 N 
ATOM     24  C   UNL     1       2.051 -22.582  42.124  0.00  0.00    -0.096 C 
ATOM     25  H   UNL     1       4.145 -22.620  42.007  0.00  0.00    -0.082 HD
ATOM     26  C   UNL     1       3.373 -22.897  40.029  0.00  0.00    -0.064 C 
ATOM     27  C   UNL     1       4.700 -22.513  39.317  0.00  0.00    +0.066 C 
ENDBRANCH  19  20
ENDBRANCH  18  19
ENDBRANCH  14  15
ENDBRANCH  12  13
TORSDOF 6
ENDMDL
MODEL 2
REMARK VINA RESULT:      -8.1      4.684     13.008
REMARK  Name = C:\Users\Docking\Desktop\test protocol\1iep_ligandH.pdb
REMARK  8 active torsions:
REMARK  status: ('A' for Active; 'I' for Inactive)
REMARK    1  A    between atoms: _5  and  _11
REMARK    2  A    between atoms: _19  and  _21
REMARK    3  A    between atoms: _22  and  _66
REMARK    4  A    between atoms: _27  and  _30
REMARK    5  A    between atoms: _32  and  _33
REMARK    6  A    between atoms: _38  and  _43
REMARK    7  A    between atoms: _43  and  _46
REMARK    8  A    between atoms: _53  and  _55
REMARK                            x       y       z     vdW  Elec       q    Type
REMARK                         _______ _______ _______ _____ _____    ______ ____
ROOT
ATOM     10  C   UNL     1       3.208 -19.451  26.955  0.00  0.00    +0.038 A 
ATOM     11  C   UNL     1       1.868 -19.205  26.560  0.00  0.00    +0.047 A 
ATOM     12  C   UNL     1       1.510 -19.065  25.158  0.00  0.00    +0.035 A 
ATOM     32  C   UNL     1       2.542 -19.183  24.182  0.00  0.00    +0.024 A 
ATOM     33  C   UNL     1       3.910 -19.431  24.565  0.00  0.00    +0.007 A 
ATOM     34  C   UNL     1       4.270 -19.568  25.947  0.00  0.00    -0.029 A 
ATOM     35  C   UNL     1       5.753 -19.827  26.300  0.00  0.00    +0.045 C 
ENDROOT
BRANCH  10   9
ATOM      4  C   UNL     1       4.676 -17.652  31.155  0.00  0.00    +0.077 A 
ATOM      5  C   UNL     1       4.916 -16.358  30.585  0.00  0.00    +0.048 A 
ATOM      6  C   UNL     1       4.656 -16.199  29.205  0.00  0.00    +0.116 A 
ATOM      7  N   UNL     1       4.190 -17.261  28.461  0.00  0.00    -0.223 NA
ATOM      8  C   UNL     1       3.971 -18.497  29.043  0.00  0.00    +0.220 A 
ATOM      9  N   UNL     1       3.496 -19.577  28.315  0.00  0.00    -0.283 N 
ATOM     36  H   UNL     1       3.354 -20.474  28.779  0.00  0.00    +0.155 HD
ATOM     37  N   UNL     1       4.213 -18.675  30.358  0.00  0.00    -0.214 NA
BRANCH   4   3
ATOM      1  C   UNL     1       6.331 -18.064  34.676  0.00  0.00    +0.020 A 
ATOM      2  C   UNL     1       6.167 -17.733  33.279  0.00  0.00    +0.013 A 
ATOM      3  C   UNL     1       4.900 -17.977  32.600  0.00  0.00    +0.019 A 
ATOM     38  C   UNL     1       3.811 -18.560  33.369  0.00  0.00    +0.120 A 
ATOM     39  N   UNL     1       3.999 -18.870  34.712  0.00  0.00    -0.263 NA
ATOM     40  C   UNL     1       5.214 -18.642  35.376  0.00  0.00    +0.111 A 
ENDBRANCH   4   3
ENDBRANCH  10   9
BRANCH  12  13
ATOM     13  N   UNL     1       0.168 -18.807  24.698  0.00  0.00    -0.281 N 
ATOM     14  C   UNL     1      -0.726 -19.703  24.135  0.00  0.00    +0.248 C 
ATOM     30  O   UNL     1      -0.430 -20.822  23.743  0.00  0.00    -0.270 OA
ATOM     31  H   UNL     1      -0.163 -17.848  24.800  0.00  0.00    +0.155 HD
BRANCH  14  15
ATOM     15  C   UNL     1      -2.154 -19.291  23.971  0.00  0.00    +0.037 A 
ATOM     16  C   UNL     1      -3.208 -20.281  23.734  0.00  0.00    +0.013 A 
ATOM     17  C   UNL     1      -4.574 -19.856  23.562  0.00  0.00    +0.005 A 
ATOM     18  C   UNL     1      -4.894 -18.432  23.627  0.00  0.00    -0.033 A 
ATOM     28  C   UNL     1      -3.830 -17.472  23.868  0.00  0.00    +0.005 A 
ATOM     29  C   UNL     1      -2.490 -17.885  24.036  0.00  0.00    +0.013 A 
BRANCH  18  19
ATOM     19  C   UNL     1      -6.322 -17.886  23.434  0.00  0.00    +0.119 C 
BRANCH  19  20
ATOM     20  N   UNL     1      -7.115 -17.594  24.665  0.00  0.00    -0.302 NA
ATOM     21  C   UNL     1      -8.583 -18.003  24.513  0.00  0.00    +0.066 C 
ATOM     22  C   UNL     1      -9.393 -17.712  25.818  0.00  0.00    -0.064 C 
ATOM     23  N   UNL     1      -9.277 -16.226  26.166  0.00  0.00    +0.379 N 
ATOM     24  C   UNL     1     -10.085 -15.938  27.360  0.00  0.00    -0.096 C 
ATOM     25  H   UNL     1      -9.709 -15.646  25.317  0.00  0.00    -0.082 HD
ATOM     26  C   UNL     1      -7.821 -15.810  26.316  0.00  0.00    -0.064 C 
ATOM     27  C   UNL     1      -7.018 -16.132  25.024  0.00  0.00    +0.066 C 
ENDBRANCH  19  20
ENDBRANCH  18  19
ENDBRANCH  14  15
ENDBRANCH  12  13
TORSDOF 6
ENDMDL
MODEL 3
REMARK VINA RESULT:      -8.0      6.478     12.143
REMARK  Name = C:\Users\Docking\Desktop\test protocol\1iep_ligandH.pdb
REMARK  8 active torsions:
REMARK  status: ('A' for Active; 'I' for Inactive)
REMARK    1  A    between atoms: _5  and  _11
REMARK    2  A    between atoms: _19  and  _21
REMARK    3  A    between atoms: _22  and  _66
REMARK    4  A    between atoms: _27  and  _30
REMARK    5  A    between atoms: _32  and  _33
REMARK    6  A    between atoms: _38  and  _43
REMARK    7  A    between atoms: _43  and  _46
REMARK    8  A    between atoms: _53  and  _55
REMARK                            x       y       z     vdW  Elec       q    Type
REMARK                         _______ _______ _______ _____ _____    ______ ____
ROOT
ATOM     10  C   UNL     1      -5.774 -19.821  23.021  0.00  0.00    +0.038 A 
ATOM     11  C   UNL     1      -4.438 -19.820  23.496  0.00  0.00    +0.047 A 
ATOM     12  C   UNL     1      -3.547 -20.941  23.239  0.00  0.00    +0.035 A 
ATOM     32  C   UNL     1      -4.050 -22.046  22.493  0.00  0.00    +0.024 A 
ATOM     33  C   UNL     1      -5.406 -22.064  22.003  0.00  0.00    +0.007 A 
ATOM     34  C   UNL     1      -6.290 -20.962  22.255  0.00  0.00    -0.029 A 
ATOM     35  C   UNL     1      -7.736 -21.039  21.712  0.00  0.00    +0.045 C 
ENDROOT
BRANCH  10   9
ATOM      4  C   UNL     1      -8.514 -17.215  25.977  0.00  0.00    +0.077 A 
ATOM      5  C   UNL     1      -8.334 -18.142  27.057  0.00  0.00    +0.048 A 
ATOM      6  C   UNL     1      -7.536 -19.281  26.808  0.00  0.00    +0.116 A 
ATOM      7  N   UNL     1      -6.964 -19.468  25.568  0.00  0.00    -0.223 NA
ATOM      8  C   UNL     1      -7.158 -18.555  24.548  0.00  0.00    +0.220 A 
ATOM      9  N   UNL     1      -6.586 -18.718  23.296  0.00  0.00    -0.283 N 
ATOM     36  H   UNL     1      -6.760 -18.026  22.568  0.00  0.00    +0.155 HD
ATOM     37  N   UNL     1      -7.918 -17.460  24.760  0.00  0.00    -0.214 NA
BRANCH   4   3
ATOM      1  C   UNL     1     -11.457 -14.719  26.617  0.00  0.00    +0.020 A 
ATOM      2  C   UNL     1     -10.716 -15.956  26.529  0.00  0.00    +0.013 A 
ATOM      3  C   UNL     1      -9.327 -15.963  26.086  0.00  0.00    +0.019 A 
ATOM     38  C   UNL     1      -8.713 -14.690  25.737  0.00  0.00    +0.120 A 
ATOM     39  N   UNL     1      -9.452 -13.515  25.830  0.00  0.00    -0.263 NA
ATOM     40  C   UNL     1     -10.789 -13.496  26.253  0.00  0.00    +0.111 A 
ENDBRANCH   4   3
ENDBRANCH  10   9
BRANCH  12  13
ATOM     13  N   UNL     1      -2.183 -20.999  23.703  0.00  0.00    -0.281 N 
ATOM     14  C   UNL     1      -1.053 -20.479  23.094  0.00  0.00    +0.248 C 
ATOM     30  O   UNL     1      -1.016 -20.068  21.944  0.00  0.00    -0.270 OA
ATOM     31  H   UNL     1      -2.032 -21.482  24.589  0.00  0.00    +0.155 HD
BRANCH  14  15
ATOM     15  C   UNL     1       0.224 -20.421  23.869  0.00  0.00    +0.037 A 
ATOM     16  C   UNL     1       1.336 -21.326  23.569  0.00  0.00    +0.013 A 
ATOM     17  C   UNL     1       2.550 -21.260  24.344  0.00  0.00    +0.005 A 
ATOM     18  C   UNL     1       2.658 -20.284  25.425  0.00  0.00    -0.033 A 
ATOM     28  C   UNL     1       1.541 -19.395  25.697  0.00  0.00    +0.005 A 
ATOM     29  C   UNL     1       0.349 -19.457  24.941  0.00  0.00    +0.013 A 
BRANCH  18  19
ATOM     19  C   UNL     1       3.908 -20.157  26.316  0.00  0.00    +0.119 C 
BRANCH  19  20
ATOM     20  N   UNL     1       4.018 -18.938  27.171  0.00  0.00    -0.302 NA
ATOM     21  C   UNL     1       5.474 -18.513  27.382  0.00  0.00    +0.066 C 
ATOM     22  C   UNL     1       5.570 -17.223  28.259  0.00  0.00    -0.064 C 
ATOM     23  N   UNL     1       4.878 -17.469  29.601  0.00  0.00    +0.379 N 
ATOM     24  C   UNL     1       5.016 -16.277  30.450  0.00  0.00    -0.096 C 
ATOM     25  H   UNL     1       5.409 -18.309  30.106  0.00  0.00    -0.082 HD
ATOM     26  C   UNL     1       3.430 -17.894  29.400  0.00  0.00    -0.064 C 
ATOM     27  C   UNL     1       3.345 -19.160  28.503  0.00  0.00    +0.066 C 
ENDBRANCH  19  20
ENDBRANCH  18  19
ENDBRANCH  14  15
ENDBRANCH  12  13
TORSDOF 6
ENDMDL
MODEL 4
REMARK VINA RESULT:      -8.0      7.940     12.314
REMARK  Name = C:\Users\Docking\Desktop\test protocol\1iep_ligandH.pdb
REMARK  8 active torsions:
REMARK  status: ('A' for Active; 'I' for Inactive)
REMARK    1  A    between atoms: _5  and  _11
REMARK    2  A    between atoms: _19  and  _21
REMARK    3  A    between atoms: _22  and  _66
REMARK    4  A    between atoms: _27  and  _30
REMARK    5  A    between atoms: _32  and  _33
REMARK    6  A    between atoms: _38  and  _43
REMARK    7  A    between atoms: _43  and  _46
REMARK    8  A    between atoms: _53  and  _55
REMARK                            x       y       z     vdW  Elec       q    Type
REMARK                         _______ _______ _______ _____ _____    ______ ____
ROOT
ATOM     10  C   UNL     1      -5.068 -19.632  23.264  0.00  0.00    +0.038 A 
ATOM     11  C   UNL     1      -3.770 -19.600  23.835  0.00  0.00    +0.047 A 
ATOM     12  C   UNL     1      -2.846 -20.711  23.664  0.00  0.00    +0.035 A 
ATOM     32  C   UNL     1      -3.276 -21.836  22.902  0.00  0.00    +0.024 A 
ATOM     33  C   UNL     1      -4.592 -21.885  22.315  0.00  0.00    +0.007 A 
ATOM     34  C   UNL     1      -5.509 -20.794  22.483  0.00  0.00    -0.029 A 
ATOM     35  C   UNL     1      -6.910 -20.903  21.837  0.00  0.00    +0.045 C 
ENDROOT
BRANCH  10   9
ATOM      4  C   UNL     1      -8.256 -17.159  25.864  0.00  0.00    +0.077 A 
ATOM      5  C   UNL     1      -8.255 -18.142  26.908  0.00  0.00    +0.048 A 
ATOM      6  C   UNL     1      -7.426 -19.273  26.734  0.00  0.00    +0.116 A 
ATOM      7  N   UNL     1      -6.659 -19.400  25.597  0.00  0.00    -0.223 NA
ATOM      8  C   UNL     1      -6.684 -18.434  24.608  0.00  0.00    +0.220 A 
ATOM      9  N   UNL     1      -5.914 -18.538  23.459  0.00  0.00    -0.283 N 
ATOM     36  H   UNL     1      -5.967 -17.808  22.750  0.00  0.00    +0.155 HD
ATOM     37  N   UNL     1      -7.469 -17.346  24.749  0.00  0.00    -0.214 NA
BRANCH   4   3
ATOM      1  C   UNL     1     -11.276 -14.679  26.043  0.00  0.00    +0.020 A 
ATOM      2  C   UNL     1     -10.530 -15.916  26.009  0.00  0.00    +0.013 A 
ATOM      3  C   UNL     1      -9.077 -15.907  25.903  0.00  0.00    +0.019 A 
ATOM     38  C   UNL     1      -8.403 -14.620  25.834  0.00  0.00    +0.120 A 
ATOM     39  N   UNL     1      -9.147 -13.445  25.867  0.00  0.00    -0.263 NA
ATOM     40  C   UNL     1     -10.546 -13.441  25.968  0.00  0.00    +0.111 A 
ENDBRANCH   4   3
ENDBRANCH  10   9
BRANCH  12  13
ATOM     13  N   UNL     1      -1.519 -20.739  24.227  0.00  0.00    -0.281 N 
ATOM     14  C   UNL     1      -0.313 -20.533  23.576  0.00  0.00    +0.248 C 
ATOM     30  O   UNL     1      -0.179 -20.503  22.362  0.00  0.00    -0.270 OA
ATOM     31  H   UNL     1      -1.461 -20.934  25.226  0.00  0.00    +0.155 HD
BRANCH  14  15
ATOM     15  C   UNL     1       0.925 -20.347  24.392  0.00  0.00    +0.037 A 
ATOM     16  C   UNL     1       2.141 -21.116  24.115  0.00  0.00    +0.013 A 
ATOM     17  C   UNL     1       3.316 -20.929  24.928  0.00  0.00    +0.005 A 
ATOM     18  C   UNL     1       3.281 -19.967  26.027  0.00  0.00    -0.033 A 
ATOM     28  C   UNL     1       2.063 -19.213  26.277  0.00  0.00    +0.005 A 
ATOM     29  C   UNL     1       0.909 -19.394  25.482  0.00  0.00    +0.013 A 
BRANCH  18  19
ATOM     19  C   UNL     1       4.481 -19.718  26.960  0.00  0.00    +0.119 C 
BRANCH  19  20
ATOM     20  N   UNL     1       5.639 -18.961  26.397  0.00  0.00    -0.302 NA
ATOM     21  C   UNL     1       6.695 -19.891  25.793  0.00  0.00    +0.066 C 
ATOM     22  C   UNL     1       7.888 -19.081  25.189  0.00  0.00    -0.064 C 
ATOM     23  N   UNL     1       8.503 -18.196  26.276  0.00  0.00    +0.379 N 
ATOM     24  C   UNL     1       9.661 -17.477  25.726  0.00  0.00    -0.096 C 
ATOM     25  H   UNL     1       8.874 -18.866  27.086  0.00  0.00    -0.082 HD
ATOM     26  C   UNL     1       7.459 -17.270  26.883  0.00  0.00    -0.064 C 
ATOM     27  C   UNL     1       6.264 -18.084  27.454  0.00  0.00    +0.066 C 
ENDBRANCH  19  20
ENDBRANCH  18  19
ENDBRANCH  14  15
ENDBRANCH  12  13
TORSDOF 6
ENDMDL
MODEL 5
REMARK VINA RESULT:      -7.9      8.145     13.107
REMARK  Name = C:\Users\Docking\Desktop\test protocol\1iep_ligandH.pdb
REMARK  8 active torsions:
REMARK  status: ('A' for Active; 'I' for Inactive)
REMARK    1  A    between atoms: _5  and  _11
REMARK    2  A    between atoms: _19  and  _21
REMARK    3  A    between atoms: _22  and  _66
REMARK    4  A    between atoms: _27  and  _30
REMARK    5  A    between atoms: _32  and  _33
REMARK    6  A    between atoms: _38  and  _43
REMARK    7  A    between atoms: _43  and  _46
REMARK    8  A    between atoms: _53  and  _55
REMARK                            x       y       z     vdW  Elec       q    Type
REMARK                         _______ _______ _______ _____ _____    ______ ____
ROOT
ATOM     10  C   UNL     1      -6.399 -19.168  22.853  0.00  0.00    +0.038 A 
ATOM     11  C   UNL     1      -5.021 -19.503  22.903  0.00  0.00    +0.047 A 
ATOM     12  C   UNL     1      -4.298 -19.526  24.165  0.00  0.00    +0.035 A 
ATOM     32  C   UNL     1      -5.010 -19.207  25.358  0.00  0.00    +0.024 A 
ATOM     33  C   UNL     1      -6.410 -18.863  25.325  0.00  0.00    +0.007 A 
ATOM     34  C   UNL     1      -7.128 -18.836  24.083  0.00  0.00    -0.029 A 
ATOM     35  C   UNL     1      -8.626 -18.454  24.106  0.00  0.00    +0.045 C 
ENDROOT
BRANCH  10   9
ATOM      4  C   UNL     1      -8.753 -21.365  19.294  0.00  0.00    +0.077 A 
ATOM      5  C   UNL     1      -8.668 -22.640  19.945  0.00  0.00    +0.048 A 
ATOM      6  C   UNL     1      -8.004 -22.689  21.191  0.00  0.00    +0.116 A 
ATOM      7  N   UNL     1      -7.469 -21.542  21.736  0.00  0.00    -0.223 NA
ATOM      8  C   UNL     1      -7.567 -20.328  21.081  0.00  0.00    +0.220 A 
ATOM      9  N   UNL     1      -7.043 -19.161  21.614  0.00  0.00    -0.283 N 
ATOM     36  H   UNL     1      -7.130 -18.287  21.096  0.00  0.00    +0.155 HD
ATOM     37  N   UNL     1      -8.195 -20.255  19.889  0.00  0.00    -0.214 NA
BRANCH   4   3
ATOM      1  C   UNL     1     -10.530 -19.691  16.238  0.00  0.00    +0.020 A 
ATOM      2  C   UNL     1      -9.886 -19.843  17.522  0.00  0.00    +0.013 A 
ATOM      3  C   UNL     1      -9.426 -21.151  17.974  0.00  0.00    +0.019 A 
ATOM     38  C   UNL     1      -9.634 -22.292  17.095  0.00  0.00    +0.120 A 
ATOM     39  N   UNL     1     -10.259 -22.115  15.864  0.00  0.00    -0.263 NA
ATOM     40  C   UNL     1     -10.707 -20.862  15.420  0.00  0.00    +0.111 A 
ENDBRANCH   4   3
ENDBRANCH  10   9
BRANCH  12  13
ATOM     13  N   UNL     1      -2.898 -19.851  24.277  0.00  0.00    -0.281 N 
ATOM     14  C   UNL     1      -2.250 -20.993  23.836  0.00  0.00    +0.248 C 
ATOM     30  O   UNL     1      -2.818 -22.010  23.466  0.00  0.00    -0.270 OA
ATOM     31  H   UNL     1      -2.312 -19.153  24.737  0.00  0.00    +0.155 HD
BRANCH  14  15
ATOM     15  C   UNL     1      -0.756 -21.015  23.816  0.00  0.00    +0.037 A 
ATOM     16  C   UNL     1      -0.020 -22.050  23.087  0.00  0.00    +0.013 A 
ATOM     17  C   UNL     1       1.421 -22.057  23.098  0.00  0.00    +0.005 A 
ATOM     18  C   UNL     1       2.137 -21.023  23.842  0.00  0.00    -0.033 A 
ATOM     28  C   UNL     1       1.382 -20.005  24.553  0.00  0.00    +0.005 A 
ATOM     29  C   UNL     1      -0.031 -19.995  24.544  0.00  0.00    +0.013 A 
BRANCH  18  19
ATOM     19  C   UNL     1       3.673 -20.966  23.927  0.00  0.00    +0.119 C 
BRANCH  19  20
ATOM     20  N   UNL     1       4.273 -19.872  24.748  0.00  0.00    -0.302 NA
ATOM     21  C   UNL     1       5.516 -19.272  24.087  0.00  0.00    +0.066 C 
ATOM     22  C   UNL     1       6.117 -18.114  24.949  0.00  0.00    -0.064 C 
ATOM     23  N   UNL     1       6.448 -18.641  26.346  0.00  0.00    +0.379 N 
ATOM     24  C   UNL     1       7.066 -17.570  27.141  0.00  0.00    -0.096 C 
ATOM     25  H   UNL     1       7.201 -19.455  26.231  0.00  0.00    -0.082 HD
ATOM     26  C   UNL     1       5.217 -19.242  27.010  0.00  0.00    -0.064 C 
ATOM     27  C   UNL     1       4.611 -20.372  26.131  0.00  0.00    +0.066 C 
ENDBRANCH  19  20
ENDBRANCH  18  19
ENDBRANCH  14  15
ENDBRANCH  12  13
TORSDOF 6
ENDMDL
