MODEL 1
REMARK VINA RESULT:      -7.5      0.000      0.000
REMARK  Name = C:\Users\Docking\Desktop\test protocol\1iep_ligandH.pdb
REMARK  8 active torsions:
REMARK  status: ('A' for Active; 'I' for Inactive)
REMARK    1  A    between atoms: _5  and  _11
REMARK    2  A    between atoms: _19  and  _21
REMARK    3  A    between atoms: _22  and  _66
REMARK    4  A    between atoms: _27  and  _30
REMARK    5  A    between atoms: _32  and  _33
REMARK    6  A    between atoms: _38  and  _43
REMARK    7  A    between atoms: _43  and  _46
REMARK    8  A    between atoms: _53  and  _55
REMARK                            x       y       z     vdW  Elec       q    Type
REMARK                         _______ _______ _______ _____ _____    ______ ____
ROOT
ATOM     10  C   UNL     1     -10.797 -14.842   3.042  0.00  0.00    +0.038 A 
ATOM     11  C   UNL     1      -9.821 -14.291   3.911  0.00  0.00    +0.047 A 
ATOM     12  C   UNL     1      -8.651 -15.058   4.310  0.00  0.00    +0.035 A 
ATOM     32  C   UNL     1      -8.506 -16.382   3.804  0.00  0.00    +0.024 A 
ATOM     33  C   UNL     1      -9.489 -16.958   2.921  0.00  0.00    +0.007 A 
ATOM     34  C   UNL     1     -10.647 -16.208   2.525  0.00  0.00    -0.029 A 
ATOM     35  C   UNL     1     -11.672 -16.878   1.581  0.00  0.00    +0.045 C 
ENDROOT
BRANCH  10   9
ATOM      4  C   UNL     1     -15.118 -12.964   3.960  0.00  0.00    +0.077 A 
ATOM      5  C   UNL     1     -15.195 -13.616   5.236  0.00  0.00    +0.048 A 
ATOM      6  C   UNL     1     -14.106 -14.431   5.615  0.00  0.00    +0.116 A 
ATOM      7  N   UNL     1     -13.024 -14.576   4.774  0.00  0.00    -0.223 NA
ATOM      8  C   UNL     1     -12.982 -13.935   3.549  0.00  0.00    +0.220 A 
ATOM      9  N   UNL     1     -11.901 -14.061   2.691  0.00  0.00    -0.283 N 
ATOM     36  H   UNL     1     -11.911 -13.578   1.793  0.00  0.00    +0.155 HD
ATOM     37  N   UNL     1     -14.011 -13.153   3.163  0.00  0.00    -0.214 NA
BRANCH   4   3
ATOM      1  C   UNL     1     -17.386 -10.903   1.529  0.00  0.00    +0.020 A 
ATOM      2  C   UNL     1     -16.334 -11.775   1.999  0.00  0.00    +0.013 A 
ATOM      3  C   UNL     1     -16.189 -12.068   3.419  0.00  0.00    +0.019 A 
ATOM     38  C   UNL     1     -17.132 -11.460   4.345  0.00  0.00    +0.120 A 
ATOM     39  N   UNL     1     -18.134 -10.623   3.863  0.00  0.00    -0.263 NA
ATOM     40  C   UNL     1     -18.283 -10.332   2.499  0.00  0.00    +0.111 A 
ENDBRANCH   4   3
ENDBRANCH  10   9
BRANCH  12  13
ATOM     13  N   UNL     1      -7.631 -14.554   5.196  0.00  0.00    -0.281 N 
ATOM     14  C   UNL     1      -7.765 -14.173   6.521  0.00  0.00    +0.248 C 
ATOM     30  O   UNL     1      -8.836 -14.006   7.087  0.00  0.00    -0.270 OA
ATOM     31  H   UNL     1      -6.696 -14.468   4.798  0.00  0.00    +0.155 HD
BRANCH  14  15
ATOM     15  C   UNL     1      -6.533 -13.929   7.331  0.00  0.00    +0.037 A 
ATOM     16  C   UNL     1      -6.557 -14.012   8.794  0.00  0.00    +0.013 A 
ATOM     17  C   UNL     1      -5.358 -13.755   9.552  0.00  0.00    +0.005 A 
ATOM     18  C   UNL     1      -4.124 -13.414   8.847  0.00  0.00    -0.033 A 
ATOM     28  C   UNL     1      -4.128 -13.344   7.396  0.00  0.00    +0.005 A 
ATOM     29  C   UNL     1      -5.301 -13.594   6.649  0.00  0.00    +0.013 A 
BRANCH  18  19
ATOM     19  C   UNL     1      -2.803 -13.103   9.576  0.00  0.00    +0.119 C 
BRANCH  19  20
ATOM     20  N   UNL     1      -2.190 -14.204  10.378  0.00  0.00    -0.302 NA
ATOM     21  C   UNL     1      -2.507 -14.073  11.870  0.00  0.00    +0.066 C 
ATOM     22  C   UNL     1      -1.876 -15.245  12.691  0.00  0.00    -0.064 C 
ATOM     23  N   UNL     1      -0.365 -15.270  12.459  0.00  0.00    +0.379 N 
ATOM     24  C   UNL     1       0.239 -16.334  13.275  0.00  0.00    -0.096 C 
ATOM     25  H   UNL     1       0.048 -14.297  12.813  0.00  0.00    -0.082 HD
ATOM     26  C   UNL     1      -0.040 -15.397  10.978  0.00  0.00    -0.064 C 
ATOM     27  C   UNL     1      -0.696 -14.245  10.167  0.00  0.00    +0.066 C 
ENDBRANCH  19  20
ENDBRANCH  18  19
ENDBRANCH  14  15
ENDBRANCH  12  13
TORSDOF 6
ENDMDL
MODEL 2
REMARK VINA RESULT:      -7.2      5.645      7.163
REMARK  Name = C:\Users\Docking\Desktop\test protocol\1iep_ligandH.pdb
REMARK  8 active torsions:
REMARK  status: ('A' for Active; 'I' for Inactive)
REMARK    1  A    between atoms: _5  and  _11
REMARK    2  A    between atoms: _19  and  _21
REMARK    3  A    between atoms: _22  and  _66
REMARK    4  A    between atoms: _27  and  _30
REMARK    5  A    between atoms: _32  and  _33
REMARK    6  A    between atoms: _38  and  _43
REMARK    7  A    between atoms: _43  and  _46
REMARK    8  A    between atoms: _53  and  _55
REMARK                            x       y       z     vdW  Elec       q    Type
REMARK                         _______ _______ _______ _____ _____    ______ ____
ROOT
ATOM     10  C   UNL     1     -14.713 -14.225   3.942  0.00  0.00    +0.038 A 
ATOM     11  C   UNL     1     -13.427 -13.805   3.517  0.00  0.00    +0.047 A 
ATOM     12  C   UNL     1     -12.469 -14.751   2.967  0.00  0.00    +0.035 A 
ATOM     32  C   UNL     1     -12.856 -16.119   2.862  0.00  0.00    +0.024 A 
ATOM     33  C   UNL     1     -14.159 -16.564   3.290  0.00  0.00    +0.007 A 
ATOM     34  C   UNL     1     -15.107 -15.635   3.836  0.00  0.00    -0.029 A 
ATOM     35  C   UNL     1     -16.487 -16.169   4.285  0.00  0.00    +0.045 C 
ENDROOT
BRANCH  10   9
ATOM      4  C   UNL     1     -17.999 -10.766   3.420  0.00  0.00    +0.077 A 
ATOM      5  C   UNL     1     -17.939 -10.843   1.989  0.00  0.00    +0.048 A 
ATOM      6  C   UNL     1     -17.044 -11.780   1.427  0.00  0.00    +0.116 A 
ATOM      7  N   UNL     1     -16.272 -12.577   2.244  0.00  0.00    -0.223 NA
ATOM      8  C   UNL     1     -16.354 -12.477   3.621  0.00  0.00    +0.220 A 
ATOM      9  N   UNL     1     -15.593 -13.273   4.463  0.00  0.00    -0.283 N 
ATOM     36  H   UNL     1     -15.677 -13.164   5.473  0.00  0.00    +0.155 HD
ATOM     37  N   UNL     1     -17.200 -11.588   4.182  0.00  0.00    -0.214 NA
BRANCH   4   3
ATOM      1  C   UNL     1     -20.509  -7.889   4.271  0.00  0.00    +0.020 A 
ATOM      2  C   UNL     1     -19.654  -8.768   3.507  0.00  0.00    +0.013 A 
ATOM      3  C   UNL     1     -18.898  -9.827   4.163  0.00  0.00    +0.019 A 
ATOM     38  C   UNL     1     -19.031  -9.972   5.605  0.00  0.00    +0.120 A 
ATOM     39  N   UNL     1     -19.860  -9.109   6.315  0.00  0.00    -0.263 NA
ATOM     40  C   UNL     1     -20.591  -8.085   5.695  0.00  0.00    +0.111 A 
ENDBRANCH   4   3
ENDBRANCH  10   9
BRANCH  12  13
ATOM     13  N   UNL     1     -11.147 -14.384   2.526  0.00  0.00    -0.281 N 
ATOM     14  C   UNL     1      -9.990 -14.299   3.283  0.00  0.00    +0.248 C 
ATOM     30  O   UNL     1      -9.960 -14.320   4.505  0.00  0.00    -0.270 OA
ATOM     31  H   UNL     1     -11.052 -14.159   1.535  0.00  0.00    +0.155 HD
BRANCH  14  15
ATOM     15  C   UNL     1      -8.677 -14.156   2.583  0.00  0.00    +0.037 A 
ATOM     16  C   UNL     1      -7.418 -14.491   3.252  0.00  0.00    +0.013 A 
ATOM     17  C   UNL     1      -6.164 -14.328   2.559  0.00  0.00    +0.005 A 
ATOM     18  C   UNL     1      -6.165 -13.828   1.187  0.00  0.00    -0.033 A 
ATOM     28  C   UNL     1      -7.429 -13.508   0.544  0.00  0.00    +0.005 A 
ATOM     29  C   UNL     1      -8.659 -13.666   1.221  0.00  0.00    +0.013 A 
BRANCH  18  19
ATOM     19  C   UNL     1      -4.873 -13.603   0.378  0.00  0.00    +0.119 C 
BRANCH  19  20
ATOM     20  N   UNL     1      -4.156 -12.309   0.581  0.00  0.00    -0.302 NA
ATOM     21  C   UNL     1      -4.509 -11.281  -0.498  0.00  0.00    +0.066 C 
ATOM     22  C   UNL     1      -3.768  -9.926  -0.257  0.00  0.00    -0.064 C 
ATOM     23  N   UNL     1      -2.259 -10.173  -0.217  0.00  0.00    +0.379 N 
ATOM     24  C   UNL     1      -1.556  -8.892  -0.049  0.00  0.00    -0.096 C 
ATOM     25  H   UNL     1      -1.960 -10.596  -1.205  0.00  0.00    -0.082 HD
ATOM     26  C   UNL     1      -1.900 -11.196   0.851  0.00  0.00    -0.064 C 
ATOM     27  C   UNL     1      -2.664 -12.529   0.619  0.00  0.00    +0.066 C 
ENDBRANCH  19  20
ENDBRANCH  18  19
ENDBRANCH  14  15
ENDBRANCH  12  13
TORSDOF 6
ENDMDL
MODEL 3
REMARK VINA RESULT:      -7.1      4.606     13.164
REMARK  Name = C:\Users\Docking\Desktop\test protocol\1iep_ligandH.pdb
REMARK  8 active torsions:
REMARK  status: ('A' for Active; 'I' for Inactive)
REMARK    1  A    between atoms: _5  and  _11
REMARK    2  A    between atoms: _19  and  _21
REMARK    3  A    between atoms: _22  and  _66
REMARK    4  A    between atoms: _27  and  _30
REMARK    5  A    between atoms: _32  and  _33
REMARK    6  A    between atoms: _38  and  _43
REMARK    7  A    between atoms: _43  and  _46
REMARK    8  A    between atoms: _53  and  _55
REMARK                            x       y       z     vdW  Elec       q    Type
REMARK                         _______ _______ _______ _____ _____    ______ ____
ROOT
ATOM     10  C   UNL     1     -10.630 -14.185   6.001  0.00  0.00    +0.038 A 
ATOM     11  C   UNL     1     -11.883 -13.637   5.624  0.00  0.00    +0.047 A 
ATOM     12  C   UNL     1     -12.049 -12.938   4.359  0.00  0.00    +0.035 A 
ATOM     32  C   UNL     1     -10.917 -12.817   3.500  0.00  0.00    +0.024 A 
ATOM     33  C   UNL     1      -9.636 -13.367   3.869  0.00  0.00    +0.007 A 
ATOM     34  C   UNL     1      -9.466 -14.055   5.116  0.00  0.00    -0.029 A 
ATOM     35  C   UNL     1      -8.068 -14.618   5.462  0.00  0.00    +0.045 C 
ENDROOT
BRANCH  10   9
ATOM      4  C   UNL     1      -9.884 -14.218  10.742  0.00  0.00    +0.077 A 
ATOM      5  C   UNL     1      -9.652 -12.803  10.775  0.00  0.00    +0.048 A 
ATOM      6  C   UNL     1      -9.727 -12.104   9.550  0.00  0.00    +0.116 A 
ATOM      7  N   UNL     1     -10.014 -12.781   8.384  0.00  0.00    -0.223 NA
ATOM      8  C   UNL     1     -10.230 -14.146   8.386  0.00  0.00    +0.220 A 
ATOM      9  N   UNL     1     -10.528 -14.846   7.227  0.00  0.00    -0.283 N 
ATOM     36  H   UNL     1     -10.673 -15.854   7.270  0.00  0.00    +0.155 HD
ATOM     37  N   UNL     1     -10.163 -14.837   9.544  0.00  0.00    -0.214 NA
BRANCH   4   3
ATOM      1  C   UNL     1      -8.680 -16.700  13.515  0.00  0.00    +0.020 A 
ATOM      2  C   UNL     1      -8.668 -15.870  12.333  0.00  0.00    +0.013 A 
ATOM      3  C   UNL     1      -9.843 -15.095  11.955  0.00  0.00    +0.019 A 
ATOM     38  C   UNL     1     -11.023 -15.182  12.802  0.00  0.00    +0.120 A 
ATOM     39  N   UNL     1     -11.006 -15.991  13.934  0.00  0.00    -0.263 NA
ATOM     40  C   UNL     1      -9.881 -16.743  14.306  0.00  0.00    +0.111 A 
ENDBRANCH   4   3
ENDBRANCH  10   9
BRANCH  12  13
ATOM     13  N   UNL     1     -13.295 -12.355   3.926  0.00  0.00    -0.281 N 
ATOM     14  C   UNL     1     -14.405 -13.003   3.411  0.00  0.00    +0.248 C 
ATOM     30  O   UNL     1     -14.416 -14.169   3.044  0.00  0.00    -0.270 OA
ATOM     31  H   UNL     1     -13.366 -11.341   4.009  0.00  0.00    +0.155 HD
BRANCH  14  15
ATOM     15  C   UNL     1     -15.684 -12.243   3.271  0.00  0.00    +0.037 A 
ATOM     16  C   UNL     1     -16.205 -11.868   1.954  0.00  0.00    +0.013 A 
ATOM     17  C   UNL     1     -17.432 -11.120   1.848  0.00  0.00    +0.005 A 
ATOM     18  C   UNL     1     -18.150 -10.744   3.064  0.00  0.00    -0.033 A 
ATOM     28  C   UNL     1     -17.614 -11.134   4.357  0.00  0.00    +0.005 A 
ATOM     29  C   UNL     1     -16.410 -11.866   4.465  0.00  0.00    +0.013 A 
BRANCH  18  19
ATOM     19  C   UNL     1     -19.456  -9.928   3.046  0.00  0.00    +0.119 C 
BRANCH  19  20
ATOM     20  N   UNL     1     -19.600  -8.847   4.066  0.00  0.00    -0.302 NA
ATOM     21  C   UNL     1     -20.567  -9.241   5.187  0.00  0.00    +0.066 C 
ATOM     22  C   UNL     1     -20.689  -8.108   6.258  0.00  0.00    -0.064 C 
ATOM     23  N   UNL     1     -21.145  -6.815   5.578  0.00  0.00    +0.379 N 
ATOM     24  C   UNL     1     -21.317  -5.763   6.590  0.00  0.00    -0.096 C 
ATOM     25  H   UNL     1     -22.142  -7.009   5.119  0.00  0.00    -0.082 HD
ATOM     26  C   UNL     1     -20.192  -6.418   4.460  0.00  0.00    -0.064 C 
ATOM     27  C   UNL     1     -20.055  -7.563   3.418  0.00  0.00    +0.066 C 
ENDBRANCH  19  20
ENDBRANCH  18  19
ENDBRANCH  14  15
ENDBRANCH  12  13
TORSDOF 6
ENDMDL
MODEL 4
REMARK VINA RESULT:      -7.0      5.488     13.344
REMARK  Name = C:\Users\Docking\Desktop\test protocol\1iep_ligandH.pdb
REMARK  8 active torsions:
REMARK  status: ('A' for Active; 'I' for Inactive)
REMARK    1  A    between atoms: _5  and  _11
REMARK    2  A    between atoms: _19  and  _21
REMARK    3  A    between atoms: _22  and  _66
REMARK    4  A    between atoms: _27  and  _30
REMARK    5  A    between atoms: _32  and  _33
REMARK    6  A    between atoms: _38  and  _43
REMARK    7  A    between atoms: _43  and  _46
REMARK    8  A    between atoms: _53  and  _55
REMARK                            x       y       z     vdW  Elec       q    Type
REMARK                         _______ _______ _______ _____ _____    ______ ____
ROOT
ATOM     10  C   UNL     1     -10.354 -14.637   3.447  0.00  0.00    +0.038 A 
ATOM     11  C   UNL     1     -11.585 -14.068   3.035  0.00  0.00    +0.047 A 
ATOM     12  C   UNL     1     -12.291 -13.111   3.873  0.00  0.00    +0.035 A 
ATOM     32  C   UNL     1     -11.712 -12.755   5.126  0.00  0.00    +0.024 A 
ATOM     33  C   UNL     1     -10.461 -13.325   5.562  0.00  0.00    +0.007 A 
ATOM     34  C   UNL     1      -9.762 -14.271   4.740  0.00  0.00    -0.029 A 
ATOM     35  C   UNL     1      -8.428 -14.855   5.260  0.00  0.00    +0.045 C 
ENDROOT
BRANCH  10   9
ATOM      4  C   UNL     1      -7.311 -15.708  -0.107  0.00  0.00    +0.077 A 
ATOM      5  C   UNL     1      -6.977 -14.329  -0.316  0.00  0.00    +0.048 A 
ATOM      6  C   UNL     1      -7.616 -13.374   0.507  0.00  0.00    +0.116 A 
ATOM      7  N   UNL     1      -8.519 -13.781   1.465  0.00  0.00    -0.223 NA
ATOM      8  C   UNL     1      -8.820 -15.119   1.640  0.00  0.00    +0.220 A 
ATOM      9  N   UNL     1      -9.719 -15.551   2.602  0.00  0.00    -0.283 N 
ATOM     36  H   UNL     1      -9.920 -16.546   2.695  0.00  0.00    +0.155 HD
ATOM     37  N   UNL     1      -8.224 -16.050   0.865  0.00  0.00    -0.214 NA
BRANCH   4   3
ATOM      1  C   UNL     1      -6.898 -18.960  -2.241  0.00  0.00    +0.020 A 
ATOM      2  C   UNL     1      -7.521 -17.896  -1.488  0.00  0.00    +0.013 A 
ATOM      3  C   UNL     1      -6.717 -16.834  -0.895  0.00  0.00    +0.019 A 
ATOM     38  C   UNL     1      -5.275 -16.879  -1.083  0.00  0.00    +0.120 A 
ATOM     39  N   UNL     1      -4.703 -17.918  -1.812  0.00  0.00    -0.263 NA
ATOM     40  C   UNL     1      -5.466 -18.946  -2.386  0.00  0.00    +0.111 A 
ENDBRANCH   4   3
ENDBRANCH  10   9
BRANCH  12  13
ATOM     13  N   UNL     1     -13.548 -12.506   3.510  0.00  0.00    -0.281 N 
ATOM     14  C   UNL     1     -14.786 -13.118   3.396  0.00  0.00    +0.248 C 
ATOM     30  O   UNL     1     -14.961 -14.327   3.382  0.00  0.00    -0.270 OA
ATOM     31  H   UNL     1     -13.523 -11.506   3.313  0.00  0.00    +0.155 HD
BRANCH  14  15
ATOM     15  C   UNL     1     -16.005 -12.262   3.265  0.00  0.00    +0.037 A 
ATOM     16  C   UNL     1     -16.468 -11.795   1.956  0.00  0.00    +0.013 A 
ATOM     17  C   UNL     1     -17.636 -10.956   1.860  0.00  0.00    +0.005 A 
ATOM     18  C   UNL     1     -18.352 -10.582   3.077  0.00  0.00    -0.033 A 
ATOM     28  C   UNL     1     -17.874 -11.064   4.362  0.00  0.00    +0.005 A 
ATOM     29  C   UNL     1     -16.728 -11.885   4.461  0.00  0.00    +0.013 A 
BRANCH  18  19
ATOM     19  C   UNL     1     -19.596  -9.674   3.070  0.00  0.00    +0.119 C 
BRANCH  19  20
ATOM     20  N   UNL     1     -19.701  -8.650   4.153  0.00  0.00    -0.302 NA
ATOM     21  C   UNL     1     -20.698  -9.063   5.239  0.00  0.00    +0.066 C 
ATOM     22  C   UNL     1     -20.779  -7.992   6.375  0.00  0.00    -0.064 C 
ATOM     23  N   UNL     1     -21.165  -6.641   5.771  0.00  0.00    +0.379 N 
ATOM     24  C   UNL     1     -21.299  -5.644   6.843  0.00  0.00    -0.096 C 
ATOM     25  H   UNL     1     -22.165  -6.759   5.291  0.00  0.00    -0.082 HD
ATOM     26  C   UNL     1     -20.181  -6.223   4.687  0.00  0.00    -0.064 C 
ATOM     27  C   UNL     1     -20.086  -7.309   3.579  0.00  0.00    +0.066 C 
ENDBRANCH  19  20
ENDBRANCH  18  19
ENDBRANCH  14  15
ENDBRANCH  12  13
TORSDOF 6
ENDMDL
MODEL 5
REMARK VINA RESULT:      -7.0      5.525     13.472
REMARK  Name = C:\Users\Docking\Desktop\test protocol\1iep_ligandH.pdb
REMARK  8 active torsions:
REMARK  status: ('A' for Active; 'I' for Inactive)
REMARK    1  A    between atoms: _5  and  _11
REMARK    2  A    between atoms: _19  and  _21
REMARK    3  A    between atoms: _22  and  _66
REMARK    4  A    between atoms: _27  and  _30
REMARK    5  A    between atoms: _32  and  _33
REMARK    6  A    between atoms: _38  and  _43
REMARK    7  A    between atoms: _43  and  _46
REMARK    8  A    between atoms: _53  and  _55
REMARK                            x       y       z     vdW  Elec       q    Type
REMARK                         _______ _______ _______ _____ _____    ______ ____
ROOT
ATOM     10  C   UNL     1     -10.557 -13.350   4.330  0.00  0.00    +0.038 A 
ATOM     11  C   UNL     1     -11.742 -12.659   3.971  0.00  0.00    +0.047 A 
ATOM     12  C   UNL     1     -12.940 -12.745   4.792  0.00  0.00    +0.035 A 
ATOM     32  C   UNL     1     -12.894 -13.541   5.974  0.00  0.00    +0.024 A 
ATOM     33  C   UNL     1     -11.698 -14.251   6.352  0.00  0.00    +0.007 A 
ATOM     34  C   UNL     1     -10.514 -14.172   5.545  0.00  0.00    -0.029 A 
ATOM     35  C   UNL     1      -9.262 -14.959   5.996  0.00  0.00    +0.045 C 
ENDROOT
BRANCH  10   9
ATOM      4  C   UNL     1      -8.037 -14.530   0.419  0.00  0.00    +0.077 A 
ATOM      5  C   UNL     1      -9.025 -15.480  -0.004  0.00  0.00    +0.048 A 
ATOM      6  C   UNL     1     -10.164 -15.641   0.818  0.00  0.00    +0.116 A 
ATOM      7  N   UNL     1     -10.294 -14.900   1.973  0.00  0.00    -0.223 NA
ATOM      8  C   UNL     1      -9.322 -13.994   2.352  0.00  0.00    +0.220 A 
ATOM      9  N   UNL     1      -9.436 -13.233   3.505  0.00  0.00    -0.283 N 
ATOM     36  H   UNL     1      -8.693 -12.580   3.754  0.00  0.00    +0.155 HD
ATOM     37  N   UNL     1      -8.224 -13.823   1.585  0.00  0.00    -0.214 NA
BRANCH   4   3
ATOM      1  C   UNL     1      -4.896 -12.730  -1.064  0.00  0.00    +0.020 A 
ATOM      2  C   UNL     1      -6.108 -12.953  -0.309  0.00  0.00    +0.013 A 
ATOM      3  C   UNL     1      -6.780 -14.245  -0.344  0.00  0.00    +0.019 A 
ATOM     38  C   UNL     1      -6.196 -15.300  -1.158  0.00  0.00    +0.120 A 
ATOM     39  N   UNL     1      -5.029 -15.056  -1.875  0.00  0.00    -0.263 NA
ATOM     40  C   UNL     1      -4.374 -13.816  -1.851  0.00  0.00    +0.111 A 
ENDBRANCH   4   3
ENDBRANCH  10   9
BRANCH  12  13
ATOM     13  N   UNL     1     -14.175 -12.072   4.475  0.00  0.00    -0.281 N 
ATOM     14  C   UNL     1     -15.246 -12.558   3.741  0.00  0.00    +0.248 C 
ATOM     30  O   UNL     1     -15.214 -13.574   3.063  0.00  0.00    -0.270 OA
ATOM     31  H   UNL     1     -14.273 -11.122   4.834  0.00  0.00    +0.155 HD
BRANCH  14  15
ATOM     15  C   UNL     1     -16.533 -11.798   3.752  0.00  0.00    +0.037 A 
ATOM     16  C   UNL     1     -17.208 -11.464   5.008  0.00  0.00    +0.013 A 
ATOM     17  C   UNL     1     -18.457 -10.745   4.989  0.00  0.00    +0.005 A 
ATOM     18  C   UNL     1     -19.038 -10.354   3.707  0.00  0.00    -0.033 A 
ATOM     28  C   UNL     1     -18.345 -10.693   2.476  0.00  0.00    +0.005 A 
ATOM     29  C   UNL     1     -17.121 -11.399   2.491  0.00  0.00    +0.013 A 
BRANCH  18  19
ATOM     19  C   UNL     1     -20.378  -9.603   3.591  0.00  0.00    +0.119 C 
BRANCH  19  20
ATOM     20  N   UNL     1     -20.587  -8.433   4.497  0.00  0.00    -0.302 NA
ATOM     21  C   UNL     1     -21.989  -8.429   5.114  0.00  0.00    +0.066 C 
ATOM     22  C   UNL     1     -22.183  -7.211   6.076  0.00  0.00    -0.064 C 
ATOM     23  N   UNL     1     -21.924  -5.913   5.309  0.00  0.00    +0.379 N 
ATOM     24  C   UNL     1     -22.162  -4.764   6.195  0.00  0.00    -0.096 C 
ATOM     25  H   UNL     1     -22.665  -5.858   4.478  0.00  0.00    -0.082 HD
ATOM     26  C   UNL     1     -20.534  -5.911   4.689  0.00  0.00    -0.064 C 
ATOM     27  C   UNL     1     -20.341  -7.140   3.759  0.00  0.00    +0.066 C 
ENDBRANCH  19  20
ENDBRANCH  18  19
ENDBRANCH  14  15
ENDBRANCH  12  13
TORSDOF 6
ENDMDL
