MODEL 1
REMARK VINA RESULT:      -7.4      0.000      0.000
REMARK  Name = C:\Users\Docking\Desktop\test protocol\1iep_ligandH.pdb
REMARK  8 active torsions:
REMARK  status: ('A' for Active; 'I' for Inactive)
REMARK    1  A    between atoms: _5  and  _11
REMARK    2  A    between atoms: _19  and  _21
REMARK    3  A    between atoms: _22  and  _66
REMARK    4  A    between atoms: _27  and  _30
REMARK    5  A    between atoms: _32  and  _33
REMARK    6  A    between atoms: _38  and  _43
REMARK    7  A    between atoms: _43  and  _46
REMARK    8  A    between atoms: _53  and  _55
REMARK                            x       y       z     vdW  Elec       q    Type
REMARK                         _______ _______ _______ _____ _____    ______ ____
ROOT
ATOM     10  C   UNL     1      22.506 -16.672  56.211  0.00  0.00    +0.038 A 
ATOM     11  C   UNL     1      22.679 -18.069  56.039  0.00  0.00    +0.047 A 
ATOM     12  C   UNL     1      21.651 -18.883  55.409  0.00  0.00    +0.035 A 
ATOM     32  C   UNL     1      20.460 -18.241  54.963  0.00  0.00    +0.024 A 
ATOM     33  C   UNL     1      20.267 -16.822  55.130  0.00  0.00    +0.007 A 
ATOM     34  C   UNL     1      21.276 -16.014  55.753  0.00  0.00    -0.029 A 
ATOM     35  C   UNL     1      21.012 -14.498  55.912  0.00  0.00    +0.045 C 
ENDROOT
BRANCH  10   9
ATOM      4  C   UNL     1      26.414 -13.892  56.029  0.00  0.00    +0.077 A 
ATOM      5  C   UNL     1      26.444 -13.926  54.595  0.00  0.00    +0.048 A 
ATOM      6  C   UNL     1      25.440 -14.676  53.943  0.00  0.00    +0.116 A 
ATOM      7  N   UNL     1      24.482 -15.338  54.680  0.00  0.00    -0.223 NA
ATOM      8  C   UNL     1      24.483 -15.286  56.061  0.00  0.00    +0.220 A 
ATOM      9  N   UNL     1      23.525 -15.938  56.822  0.00  0.00    -0.283 N 
ATOM     36  H   UNL     1      23.564 -15.882  57.840  0.00  0.00    +0.155 HD
ATOM     37  N   UNL     1      25.432 -14.578  56.708  0.00  0.00    -0.214 NA
BRANCH   4   3
ATOM      1  C   UNL     1      28.012 -11.554  58.727  0.00  0.00    +0.020 A 
ATOM      2  C   UNL     1      27.015 -12.256  57.953  0.00  0.00    +0.013 A 
ATOM      3  C   UNL     1      27.406 -13.141  56.862  0.00  0.00    +0.019 A 
ATOM     38  C   UNL     1      28.825 -13.294  56.579  0.00  0.00    +0.120 A 
ATOM     39  N   UNL     1      29.762 -12.604  57.341  0.00  0.00    -0.263 NA
ATOM     40  C   UNL     1      29.398 -11.749  58.391  0.00  0.00    +0.111 A 
ENDBRANCH   4   3
ENDBRANCH  10   9
BRANCH  12  13
ATOM     13  N   UNL     1      21.768 -20.307  55.216  0.00  0.00    -0.281 N 
ATOM     14  C   UNL     1      22.392 -20.977  54.176  0.00  0.00    +0.248 C 
ATOM     30  O   UNL     1      22.762 -20.449  53.137  0.00  0.00    -0.270 OA
ATOM     31  H   UNL     1      21.339 -20.893  55.932  0.00  0.00    +0.155 HD
BRANCH  14  15
ATOM     15  C   UNL     1      22.626 -22.448  54.301  0.00  0.00    +0.037 A 
ATOM     16  C   UNL     1      23.044 -23.045  55.572  0.00  0.00    +0.013 A 
ATOM     17  C   UNL     1      23.279 -24.464  55.662  0.00  0.00    +0.005 A 
ATOM     18  C   UNL     1      23.095 -25.297  54.476  0.00  0.00    -0.033 A 
ATOM     28  C   UNL     1      22.675 -24.679  53.229  0.00  0.00    +0.005 A 
ATOM     29  C   UNL     1      22.445 -23.288  53.137  0.00  0.00    +0.013 A 
BRANCH  18  19
ATOM     19  C   UNL     1      23.344 -26.817  54.474  0.00  0.00    +0.119 C 
BRANCH  19  20
ATOM     20  N   UNL     1      22.268 -27.685  53.911  0.00  0.00    -0.302 NA
ATOM     21  C   UNL     1      21.581 -28.523  54.993  0.00  0.00    +0.066 C 
ATOM     22  C   UNL     1      20.442 -29.409  54.390  0.00  0.00    -0.064 C 
ATOM     23  N   UNL     1      21.024 -30.307  53.297  0.00  0.00    +0.379 N 
ATOM     24  C   UNL     1      19.968 -31.183  52.768  0.00  0.00    -0.096 C 
ATOM     25  H   UNL     1      21.797 -30.957  53.770  0.00  0.00    -0.082 HD
ATOM     26  C   UNL     1      21.711 -29.483  52.219  0.00  0.00    -0.064 C 
ATOM     27  C   UNL     1      22.821 -28.584  52.833  0.00  0.00    +0.066 C 
ENDBRANCH  19  20
ENDBRANCH  18  19
ENDBRANCH  14  15
ENDBRANCH  12  13
TORSDOF 6
ENDMDL
MODEL 2
REMARK VINA RESULT:      -7.4      1.948     12.934
REMARK  Name = C:\Users\Docking\Desktop\test protocol\1iep_ligandH.pdb
REMARK  8 active torsions:
REMARK  status: ('A' for Active; 'I' for Inactive)
REMARK    1  A    between atoms: _5  and  _11
REMARK    2  A    between atoms: _19  and  _21
REMARK    3  A    between atoms: _22  and  _66
REMARK    4  A    between atoms: _27  and  _30
REMARK    5  A    between atoms: _32  and  _33
REMARK    6  A    between atoms: _38  and  _43
REMARK    7  A    between atoms: _43  and  _46
REMARK    8  A    between atoms: _53  and  _55
REMARK                            x       y       z     vdW  Elec       q    Type
REMARK                         _______ _______ _______ _____ _____    ______ ____
ROOT
ATOM     10  C   UNL     1      21.123 -20.861  55.488  0.00  0.00    +0.038 A 
ATOM     11  C   UNL     1      22.151 -19.923  55.764  0.00  0.00    +0.047 A 
ATOM     12  C   UNL     1      21.933 -18.495  55.589  0.00  0.00    +0.035 A 
ATOM     32  C   UNL     1      20.655 -18.057  55.135  0.00  0.00    +0.024 A 
ATOM     33  C   UNL     1      19.599 -18.997  54.850  0.00  0.00    +0.007 A 
ATOM     34  C   UNL     1      19.809 -20.406  55.017  0.00  0.00    -0.029 A 
ATOM     35  C   UNL     1      18.644 -21.369  54.690  0.00  0.00    +0.045 C 
ENDROOT
BRANCH  10   9
ATOM      4  C   UNL     1      22.587 -25.144  53.891  0.00  0.00    +0.077 A 
ATOM      5  C   UNL     1      22.820 -24.637  52.570  0.00  0.00    +0.048 A 
ATOM      6  C   UNL     1      22.545 -23.270  52.341  0.00  0.00    +0.116 A 
ATOM      7  N   UNL     1      22.071 -22.479  53.364  0.00  0.00    -0.223 NA
ATOM      8  C   UNL     1      21.855 -22.999  54.627  0.00  0.00    +0.220 A 
ATOM      9  N   UNL     1      21.387 -22.220  55.673  0.00  0.00    -0.283 N 
ATOM     36  H   UNL     1      21.234 -22.643  56.588  0.00  0.00    +0.155 HD
ATOM     37  N   UNL     1      22.110 -24.302  54.871  0.00  0.00    -0.214 NA
BRANCH   4   3
ATOM      1  C   UNL     1      24.340 -28.455  55.015  0.00  0.00    +0.020 A 
ATOM      2  C   UNL     1      24.156 -27.073  54.636  0.00  0.00    +0.013 A 
ATOM      3  C   UNL     1      22.834 -26.565  54.291  0.00  0.00    +0.019 A 
ATOM     38  C   UNL     1      21.710 -27.489  54.341  0.00  0.00    +0.120 A 
ATOM     39  N   UNL     1      21.918 -28.815  54.708  0.00  0.00    -0.263 NA
ATOM     40  C   UNL     1      23.186 -29.315  55.041  0.00  0.00    +0.111 A 
ENDBRANCH   4   3
ENDBRANCH  10   9
BRANCH  12  13
ATOM     13  N   UNL     1      22.941 -17.496  55.845  0.00  0.00    -0.281 N 
ATOM     14  C   UNL     1      23.593 -16.689  54.927  0.00  0.00    +0.248 C 
ATOM     30  O   UNL     1      23.560 -16.854  53.716  0.00  0.00    -0.270 OA
ATOM     31  H   UNL     1      23.207 -17.369  56.822  0.00  0.00    +0.155 HD
BRANCH  14  15
ATOM     15  C   UNL     1      24.410 -15.542  55.426  0.00  0.00    +0.037 A 
ATOM     16  C   UNL     1      24.319 -15.093  56.818  0.00  0.00    +0.013 A 
ATOM     17  C   UNL     1      25.106 -13.972  57.269  0.00  0.00    +0.005 A 
ATOM     18  C   UNL     1      25.992 -13.294  56.327  0.00  0.00    -0.033 A 
ATOM     28  C   UNL     1      26.066 -13.763  54.953  0.00  0.00    +0.005 A 
ATOM     29  C   UNL     1      25.296 -14.860  54.507  0.00  0.00    +0.013 A 
BRANCH  18  19
ATOM     19  C   UNL     1      26.852 -12.076  56.716  0.00  0.00    +0.119 C 
BRANCH  19  20
ATOM     20  N   UNL     1      28.306 -12.131  56.379  0.00  0.00    -0.302 NA
ATOM     21  C   UNL     1      29.183 -12.209  57.631  0.00  0.00    +0.066 C 
ATOM     22  C   UNL     1      30.700 -12.288  57.260  0.00  0.00    -0.064 C 
ATOM     23  N   UNL     1      31.077 -11.074  56.409  0.00  0.00    +0.379 N 
ATOM     24  C   UNL     1      32.515 -11.115  56.106  0.00  0.00    -0.096 C 
ATOM     25  H   UNL     1      30.886 -10.161  57.019  0.00  0.00    -0.082 HD
ATOM     26  C   UNL     1      30.208 -10.987  55.162  0.00  0.00    -0.064 C 
ATOM     27  C   UNL     1      28.701 -10.939  55.542  0.00  0.00    +0.066 C 
ENDBRANCH  19  20
ENDBRANCH  18  19
ENDBRANCH  14  15
ENDBRANCH  12  13
TORSDOF 6
ENDMDL
MODEL 3
REMARK VINA RESULT:      -7.1      2.541     13.351
REMARK  Name = C:\Users\Docking\Desktop\test protocol\1iep_ligandH.pdb
REMARK  8 active torsions:
REMARK  status: ('A' for Active; 'I' for Inactive)
REMARK    1  A    between atoms: _5  and  _11
REMARK    2  A    between atoms: _19  and  _21
REMARK    3  A    between atoms: _22  and  _66
REMARK    4  A    between atoms: _27  and  _30
REMARK    5  A    between atoms: _32  and  _33
REMARK    6  A    between atoms: _38  and  _43
REMARK    7  A    between atoms: _43  and  _46
REMARK    8  A    between atoms: _53  and  _55
REMARK                            x       y       z     vdW  Elec       q    Type
REMARK                         _______ _______ _______ _____ _____    ______ ____
ROOT
ATOM     10  C   UNL     1      21.177 -20.425  55.389  0.00  0.00    +0.038 A 
ATOM     11  C   UNL     1      22.149 -19.513  55.873  0.00  0.00    +0.047 A 
ATOM     12  C   UNL     1      21.946 -18.076  55.779  0.00  0.00    +0.035 A 
ATOM     32  C   UNL     1      20.739 -17.602  55.187  0.00  0.00    +0.024 A 
ATOM     33  C   UNL     1      19.741 -18.514  54.688  0.00  0.00    +0.007 A 
ATOM     34  C   UNL     1      19.937 -19.933  54.776  0.00  0.00    -0.029 A 
ATOM     35  C   UNL     1      18.836 -20.864  54.219  0.00  0.00    +0.045 C 
ENDROOT
BRANCH  10   9
ATOM      4  C   UNL     1      22.675 -24.622  53.606  0.00  0.00    +0.077 A 
ATOM      5  C   UNL     1      22.965 -24.042  52.326  0.00  0.00    +0.048 A 
ATOM      6  C   UNL     1      22.708 -22.662  52.166  0.00  0.00    +0.116 A 
ATOM      7  N   UNL     1      22.199 -21.926  53.214  0.00  0.00    -0.223 NA
ATOM      8  C   UNL     1      21.929 -22.517  54.434  0.00  0.00    +0.220 A 
ATOM      9  N   UNL     1      21.424 -21.795  55.505  0.00  0.00    -0.283 N 
ATOM     36  H   UNL     1      21.230 -22.269  56.387  0.00  0.00    +0.155 HD
ATOM     37  N   UNL     1      22.164 -23.834  54.612  0.00  0.00    -0.214 NA
BRANCH   4   3
ATOM      1  C   UNL     1      22.492 -28.529  53.561  0.00  0.00    +0.020 A 
ATOM      2  C   UNL     1      22.244 -27.150  53.206  0.00  0.00    +0.013 A 
ATOM      3  C   UNL     1      22.895 -26.067  53.931  0.00  0.00    +0.019 A 
ATOM     38  C   UNL     1      23.799 -26.414  55.017  0.00  0.00    +0.120 A 
ATOM     39  N   UNL     1      24.018 -27.751  55.337  0.00  0.00    -0.263 NA
ATOM     40  C   UNL     1      23.395 -28.802  54.647  0.00  0.00    +0.111 A 
ENDBRANCH   4   3
ENDBRANCH  10   9
BRANCH  12  13
ATOM     13  N   UNL     1      22.901 -17.102  56.247  0.00  0.00    -0.281 N 
ATOM     14  C   UNL     1      23.710 -16.270  55.490  0.00  0.00    +0.248 C 
ATOM     30  O   UNL     1      23.888 -16.388  54.287  0.00  0.00    -0.270 OA
ATOM     31  H   UNL     1      22.993 -17.016  57.259  0.00  0.00    +0.155 HD
BRANCH  14  15
ATOM     15  C   UNL     1      24.435 -15.154  56.169  0.00  0.00    +0.037 A 
ATOM     16  C   UNL     1      23.794 -14.359  57.220  0.00  0.00    +0.013 A 
ATOM     17  C   UNL     1      24.510 -13.277  57.847  0.00  0.00    +0.005 A 
ATOM     18  C   UNL     1      25.878 -12.985  57.426  0.00  0.00    -0.033 A 
ATOM     28  C   UNL     1      26.492 -13.793  56.385  0.00  0.00    +0.005 A 
ATOM     29  C   UNL     1      25.793 -14.853  55.767  0.00  0.00    +0.013 A 
BRANCH  18  19
ATOM     19  C   UNL     1      26.711 -11.836  58.026  0.00  0.00    +0.119 C 
BRANCH  19  20
ATOM     20  N   UNL     1      25.964 -10.711  58.663  0.00  0.00    -0.302 NA
ATOM     21  C   UNL     1      25.716  -9.559  57.685  0.00  0.00    +0.066 C 
ATOM     22  C   UNL     1      24.914  -8.400  58.362  0.00  0.00    -0.064 C 
ATOM     23  N   UNL     1      25.674  -7.910  59.596  0.00  0.00    +0.379 N 
ATOM     24  C   UNL     1      24.952  -6.782  60.201  0.00  0.00    -0.096 C 
ATOM     25  H   UNL     1      26.666  -7.532  59.253  0.00  0.00    -0.082 HD
ATOM     26  C   UNL     1      25.927  -9.050  60.572  0.00  0.00    -0.064 C 
ATOM     27  C   UNL     1      26.699 -10.208  59.881  0.00  0.00    +0.066 C 
ENDBRANCH  19  20
ENDBRANCH  18  19
ENDBRANCH  14  15
ENDBRANCH  12  13
TORSDOF 6
ENDMDL
MODEL 4
REMARK VINA RESULT:      -6.7     30.610     34.610
REMARK  Name = C:\Users\Docking\Desktop\test protocol\1iep_ligandH.pdb
REMARK  8 active torsions:
REMARK  status: ('A' for Active; 'I' for Inactive)
REMARK    1  A    between atoms: _5  and  _11
REMARK    2  A    between atoms: _19  and  _21
REMARK    3  A    between atoms: _22  and  _66
REMARK    4  A    between atoms: _27  and  _30
REMARK    5  A    between atoms: _32  and  _33
REMARK    6  A    between atoms: _38  and  _43
REMARK    7  A    between atoms: _43  and  _46
REMARK    8  A    between atoms: _53  and  _55
REMARK                            x       y       z     vdW  Elec       q    Type
REMARK                         _______ _______ _______ _____ _____    ______ ____
ROOT
ATOM     10  C   UNL     1      39.268 -22.335  83.984  0.00  0.00    +0.038 A 
ATOM     11  C   UNL     1      38.251 -21.531  84.557  0.00  0.00    +0.047 A 
ATOM     12  C   UNL     1      38.549 -20.216  85.105  0.00  0.00    +0.035 A 
ATOM     32  C   UNL     1      39.895 -19.751  85.050  0.00  0.00    +0.024 A 
ATOM     33  C   UNL     1      40.943 -20.556  84.472  0.00  0.00    +0.007 A 
ATOM     34  C   UNL     1      40.655 -21.855  83.932  0.00  0.00    -0.029 A 
ATOM     35  C   UNL     1      41.818 -22.677  83.331  0.00  0.00    +0.045 C 
ENDROOT
BRANCH  10   9
ATOM      4  C   UNL     1      38.070 -26.949  84.541  0.00  0.00    +0.077 A 
ATOM      5  C   UNL     1      38.160 -26.862  85.970  0.00  0.00    +0.048 A 
ATOM      6  C   UNL     1      38.525 -25.613  86.521  0.00  0.00    +0.116 A 
ATOM      7  N   UNL     1      38.778 -24.539  85.696  0.00  0.00    -0.223 NA
ATOM      8  C   UNL     1      38.683 -24.658  84.322  0.00  0.00    +0.220 A 
ATOM      9  N   UNL     1      38.926 -23.589  83.473  0.00  0.00    -0.283 N 
ATOM     36  H   UNL     1      38.853 -23.719  82.464  0.00  0.00    +0.155 HD
ATOM     37  N   UNL     1      38.338 -25.840  83.770  0.00  0.00    -0.214 NA
BRANCH   4   3
ATOM      1  C   UNL     1      38.253 -30.254  82.456  0.00  0.00    +0.020 A 
ATOM      2  C   UNL     1      38.670 -29.057  83.150  0.00  0.00    +0.013 A 
ATOM      3  C   UNL     1      37.692 -28.199  83.808  0.00  0.00    +0.019 A 
ATOM     38  C   UNL     1      36.290 -28.584  83.746  0.00  0.00    +0.120 A 
ATOM     39  N   UNL     1      35.918 -29.742  83.069  0.00  0.00    -0.263 NA
ATOM     40  C   UNL     1      36.850 -30.574  82.431  0.00  0.00    +0.111 A 
ENDBRANCH   4   3
ENDBRANCH  10   9
BRANCH  12  13
ATOM     13  N   UNL     1      37.558 -19.358  85.706  0.00  0.00    -0.281 N 
ATOM     14  C   UNL     1      37.534 -17.974  85.733  0.00  0.00    +0.248 C 
ATOM     30  O   UNL     1      38.478 -17.260  85.426  0.00  0.00    -0.270 OA
ATOM     31  H   UNL     1      36.781 -19.829  86.169  0.00  0.00    +0.155 HD
BRANCH  14  15
ATOM     15  C   UNL     1      36.287 -17.281  86.178  0.00  0.00    +0.037 A 
ATOM     16  C   UNL     1      36.003 -15.899  85.785  0.00  0.00    +0.013 A 
ATOM     17  C   UNL     1      34.800 -15.249  86.243  0.00  0.00    +0.005 A 
ATOM     18  C   UNL     1      33.871 -15.983  87.099  0.00  0.00    -0.033 A 
ATOM     28  C   UNL     1      34.175 -17.355  87.470  0.00  0.00    +0.005 A 
ATOM     29  C   UNL     1      35.353 -17.995  87.024  0.00  0.00    +0.013 A 
BRANCH  18  19
ATOM     19  C   UNL     1      32.575 -15.362  87.651  0.00  0.00    +0.119 C 
BRANCH  19  20
ATOM     20  N   UNL     1      31.284 -15.854  87.082  0.00  0.00    -0.302 NA
ATOM     21  C   UNL     1      31.400 -16.176  85.590  0.00  0.00    +0.066 C 
ATOM     22  C   UNL     1      30.047 -16.711  85.016  0.00  0.00    -0.064 C 
ATOM     23  N   UNL     1      28.947 -15.678  85.264  0.00  0.00    +0.379 N 
ATOM     24  C   UNL     1      27.687 -16.152  84.675  0.00  0.00    -0.096 C 
ATOM     25  H   UNL     1      29.237 -14.741  84.734  0.00  0.00    -0.082 HD
ATOM     26  C   UNL     1      28.827 -15.351  86.746  0.00  0.00    -0.064 C 
ATOM     27  C   UNL     1      30.184 -14.848  87.313  0.00  0.00    +0.066 C 
ENDBRANCH  19  20
ENDBRANCH  18  19
ENDBRANCH  14  15
ENDBRANCH  12  13
TORSDOF 6
ENDMDL
MODEL 5
REMARK VINA RESULT:      -6.6      9.447     11.589
REMARK  Name = C:\Users\Docking\Desktop\test protocol\1iep_ligandH.pdb
REMARK  8 active torsions:
REMARK  status: ('A' for Active; 'I' for Inactive)
REMARK    1  A    between atoms: _5  and  _11
REMARK    2  A    between atoms: _19  and  _21
REMARK    3  A    between atoms: _22  and  _66
REMARK    4  A    between atoms: _27  and  _30
REMARK    5  A    between atoms: _32  and  _33
REMARK    6  A    between atoms: _38  and  _43
REMARK    7  A    between atoms: _43  and  _46
REMARK    8  A    between atoms: _53  and  _55
REMARK                            x       y       z     vdW  Elec       q    Type
REMARK                         _______ _______ _______ _____ _____    ______ ____
ROOT
ATOM     10  C   UNL     1      28.964 -12.812  57.201  0.00  0.00    +0.038 A 
ATOM     11  C   UNL     1      27.583 -12.985  57.473  0.00  0.00    +0.047 A 
ATOM     12  C   UNL     1      26.883 -12.109  58.401  0.00  0.00    +0.035 A 
ATOM     32  C   UNL     1      27.621 -11.066  59.032  0.00  0.00    +0.024 A 
ATOM     33  C   UNL     1      29.026 -10.876  58.767  0.00  0.00    +0.007 A 
ATOM     34  C   UNL     1      29.722 -11.739  57.855  0.00  0.00    -0.029 A 
ATOM     35  C   UNL     1      31.229 -11.493  57.615  0.00  0.00    +0.045 C 
ENDROOT
BRANCH  10   9
ATOM      4  C   UNL     1      30.475 -13.975  52.796  0.00  0.00    +0.077 A 
ATOM      5  C   UNL     1      29.960 -12.760  52.234  0.00  0.00    +0.048 A 
ATOM      6  C   UNL     1      29.307 -11.865  53.112  0.00  0.00    +0.116 A 
ATOM      7  N   UNL     1      29.184 -12.173  54.449  0.00  0.00    -0.223 NA
ATOM      8  C   UNL     1      29.690 -13.355  54.958  0.00  0.00    +0.220 A 
ATOM      9  N   UNL     1      29.585 -13.681  56.302  0.00  0.00    -0.283 N 
ATOM     36  H   UNL     1      29.965 -14.566  56.637  0.00  0.00    +0.155 HD
ATOM     37  N   UNL     1      30.318 -14.226  54.141  0.00  0.00    -0.214 NA
BRANCH   4   3
ATOM      1  C   UNL     1      31.249 -16.938  50.362  0.00  0.00    +0.020 A 
ATOM      2  C   UNL     1      30.508 -15.949  51.111  0.00  0.00    +0.013 A 
ATOM      3  C   UNL     1      31.194 -15.019  51.999  0.00  0.00    +0.019 A 
ATOM     38  C   UNL     1      32.642 -15.116  52.107  0.00  0.00    +0.120 A 
ATOM     39  N   UNL     1      33.329 -16.080  51.375  0.00  0.00    -0.263 NA
ATOM     40  C   UNL     1      32.679 -16.981  50.519  0.00  0.00    +0.111 A 
ENDBRANCH   4   3
ENDBRANCH  10   9
BRANCH  12  13
ATOM     13  N   UNL     1      25.484 -12.241  58.722  0.00  0.00    -0.281 N 
ATOM     14  C   UNL     1      24.402 -12.178  57.860  0.00  0.00    +0.248 C 
ATOM     30  O   UNL     1      24.461 -11.783  56.705  0.00  0.00    -0.270 OA
ATOM     31  H   UNL     1      25.264 -12.401  59.706  0.00  0.00    +0.155 HD
BRANCH  14  15
ATOM     15  C   UNL     1      23.057 -12.601  58.356  0.00  0.00    +0.037 A 
ATOM     16  C   UNL     1      22.078 -13.223  57.461  0.00  0.00    +0.013 A 
ATOM     17  C   UNL     1      20.781 -13.606  57.961  0.00  0.00    +0.005 A 
ATOM     18  C   UNL     1      20.457 -13.369  59.366  0.00  0.00    -0.033 A 
ATOM     28  C   UNL     1      21.449 -12.755  60.233  0.00  0.00    +0.005 A 
ATOM     29  C   UNL     1      22.721 -12.378  59.746  0.00  0.00    +0.013 A 
BRANCH  18  19
ATOM     19  C   UNL     1      19.091 -13.726  59.981  0.00  0.00    +0.119 C 
BRANCH  19  20
ATOM     20  N   UNL     1      18.996 -13.746  61.471  0.00  0.00    -0.302 NA
ATOM     21  C   UNL     1      19.532 -15.053  62.063  0.00  0.00    +0.066 C 
ATOM     22  C   UNL     1      19.446 -15.048  63.624  0.00  0.00    -0.064 C 
ATOM     23  N   UNL     1      17.996 -14.814  64.051  0.00  0.00    +0.379 N 
ATOM     24  C   UNL     1      17.903 -14.867  65.518  0.00  0.00    -0.096 C 
ATOM     25  H   UNL     1      17.385 -15.652  63.643  0.00  0.00    -0.082 HD
ATOM     26  C   UNL     1      17.454 -13.518  63.465  0.00  0.00    -0.064 C 
ATOM     27  C   UNL     1      17.572 -13.522  61.915  0.00  0.00    +0.066 C 
ENDBRANCH  19  20
ENDBRANCH  18  19
ENDBRANCH  14  15
ENDBRANCH  12  13
TORSDOF 6
ENDMDL
