MODEL 1
REMARK VINA RESULT:      -8.6      0.000      0.000
REMARK  Name = C:\Users\Docking\Desktop\test protocol\1iep_ligandH.pdb
REMARK  8 active torsions:
REMARK  status: ('A' for Active; 'I' for Inactive)
REMARK    1  A    between atoms: _5  and  _11
REMARK    2  A    between atoms: _19  and  _21
REMARK    3  A    between atoms: _22  and  _66
REMARK    4  A    between atoms: _27  and  _30
REMARK    5  A    between atoms: _32  and  _33
REMARK    6  A    between atoms: _38  and  _43
REMARK    7  A    between atoms: _43  and  _46
REMARK    8  A    between atoms: _53  and  _55
REMARK                            x       y       z     vdW  Elec       q    Type
REMARK                         _______ _______ _______ _____ _____    ______ ____
ROOT
ATOM     10  C   UNL     1      -5.488   5.966  25.718  0.00  0.00    +0.038 A 
ATOM     11  C   UNL     1      -5.748   7.073  24.871  0.00  0.00    +0.047 A 
ATOM     12  C   UNL     1      -6.967   7.855  25.008  0.00  0.00    +0.035 A 
ATOM     32  C   UNL     1      -7.899   7.482  26.021  0.00  0.00    +0.024 A 
ATOM     33  C   UNL     1      -7.650   6.359  26.890  0.00  0.00    +0.007 A 
ATOM     34  C   UNL     1      -6.450   5.583  26.758  0.00  0.00    -0.029 A 
ATOM     35  C   UNL     1      -6.239   4.385  27.713  0.00  0.00    +0.045 C 
ENDROOT
BRANCH  10   9
ATOM      4  C   UNL     1      -2.905   2.497  23.637  0.00  0.00    +0.077 A 
ATOM      5  C   UNL     1      -4.022   2.055  22.852  0.00  0.00    +0.048 A 
ATOM      6  C   UNL     1      -5.245   2.742  23.019  0.00  0.00    +0.116 A 
ATOM      7  N   UNL     1      -5.333   3.792  23.907  0.00  0.00    -0.223 NA
ATOM      8  C   UNL     1      -4.237   4.192  24.650  0.00  0.00    +0.220 A 
ATOM      9  N   UNL     1      -4.301   5.251  25.543  0.00  0.00    -0.283 N 
ATOM     36  H   UNL     1      -3.472   5.510  26.077  0.00  0.00    +0.155 HD
ATOM     37  N   UNL     1      -3.058   3.551  24.509  0.00  0.00    -0.214 NA
BRANCH   4   3
ATOM      1  C   UNL     1       0.326   0.718  22.334  0.00  0.00    +0.020 A 
ATOM      2  C   UNL     1      -0.992   1.309  22.345  0.00  0.00    +0.013 A 
ATOM      3  C   UNL     1      -1.546   1.873  23.570  0.00  0.00    +0.019 A 
ATOM     38  C   UNL     1      -0.732   1.826  24.775  0.00  0.00    +0.120 A 
ATOM     39  N   UNL     1       0.534   1.250  24.735  0.00  0.00    -0.263 NA
ATOM     40  C   UNL     1       1.076   0.701  23.563  0.00  0.00    +0.111 A 
ENDBRANCH   4   3
ENDBRANCH  10   9
BRANCH  12  13
ATOM     13  N   UNL     1      -7.290   8.985  24.172  0.00  0.00    -0.281 N 
ATOM     14  C   UNL     1      -8.481   9.245  23.516  0.00  0.00    +0.248 C 
ATOM     30  O   UNL     1      -9.385   8.434  23.375  0.00  0.00    -0.270 OA
ATOM     31  H   UNL     1      -6.550   9.676  24.049  0.00  0.00    +0.155 HD
BRANCH  14  15
ATOM     15  C   UNL     1      -8.695  10.598  22.917  0.00  0.00    +0.037 A 
ATOM     16  C   UNL     1     -10.018  11.024  22.454  0.00  0.00    +0.013 A 
ATOM     17  C   UNL     1     -10.193  12.328  21.864  0.00  0.00    +0.005 A 
ATOM     18  C   UNL     1      -9.040  13.216  21.735  0.00  0.00    -0.033 A 
ATOM     28  C   UNL     1      -7.739  12.770  22.208  0.00  0.00    +0.005 A 
ATOM     29  C   UNL     1      -7.564  11.492  22.785  0.00  0.00    +0.013 A 
BRANCH  18  19
ATOM     19  C   UNL     1      -9.129  14.616  21.099  0.00  0.00    +0.119 C 
BRANCH  19  20
ATOM     20  N   UNL     1      -7.958  15.524  21.278  0.00  0.00    -0.302 NA
ATOM     21  C   UNL     1      -7.997  16.255  22.623  0.00  0.00    +0.066 C 
ATOM     22  C   UNL     1      -6.752  17.184  22.803  0.00  0.00    -0.064 C 
ATOM     23  N   UNL     1      -6.693  18.182  21.646  0.00  0.00    +0.379 N 
ATOM     24  C   UNL     1      -5.557  19.094  21.843  0.00  0.00    -0.096 C 
ATOM     25  H   UNL     1      -7.626  18.792  21.678  0.00  0.00    -0.082 HD
ATOM     26  C   UNL     1      -6.656  17.464  20.304  0.00  0.00    -0.064 C 
ATOM     27  C   UNL     1      -7.882  16.522  20.148  0.00  0.00    +0.066 C 
ENDBRANCH  19  20
ENDBRANCH  18  19
ENDBRANCH  14  15
ENDBRANCH  12  13
TORSDOF 6
ENDMDL
MODEL 2
REMARK VINA RESULT:      -8.5      9.613     18.054
REMARK  Name = C:\Users\Docking\Desktop\test protocol\1iep_ligandH.pdb
REMARK  8 active torsions:
REMARK  status: ('A' for Active; 'I' for Inactive)
REMARK    1  A    between atoms: _5  and  _11
REMARK    2  A    between atoms: _19  and  _21
REMARK    3  A    between atoms: _22  and  _66
REMARK    4  A    between atoms: _27  and  _30
REMARK    5  A    between atoms: _32  and  _33
REMARK    6  A    between atoms: _38  and  _43
REMARK    7  A    between atoms: _43  and  _46
REMARK    8  A    between atoms: _53  and  _55
REMARK                            x       y       z     vdW  Elec       q    Type
REMARK                         _______ _______ _______ _____ _____    ______ ____
ROOT
ATOM     10  C   UNL     1     -14.796  19.975  29.349  0.00  0.00    +0.038 A 
ATOM     11  C   UNL     1     -13.912  19.244  28.515  0.00  0.00    +0.047 A 
ATOM     12  C   UNL     1     -13.009  18.246  29.068  0.00  0.00    +0.035 A 
ATOM     32  C   UNL     1     -13.035  18.016  30.474  0.00  0.00    +0.024 A 
ATOM     33  C   UNL     1     -13.926  18.751  31.337  0.00  0.00    +0.007 A 
ATOM     34  C   UNL     1     -14.817  19.739  30.798  0.00  0.00    -0.029 A 
ATOM     35  C   UNL     1     -15.746  20.501  31.771  0.00  0.00    +0.045 C 
ENDROOT
BRANCH  10   9
ATOM      4  C   UNL     1     -15.944  24.494  28.209  0.00  0.00    +0.077 A 
ATOM      5  C   UNL     1     -14.773  25.016  28.853  0.00  0.00    +0.048 A 
ATOM      6  C   UNL     1     -13.905  24.089  29.473  0.00  0.00    +0.116 A 
ATOM      7  N   UNL     1     -14.196  22.743  29.443  0.00  0.00    -0.223 NA
ATOM      8  C   UNL     1     -15.334  22.272  28.814  0.00  0.00    +0.220 A 
ATOM      9  N   UNL     1     -15.641  20.921  28.766  0.00  0.00    -0.283 N 
ATOM     36  H   UNL     1     -16.494  20.615  28.298  0.00  0.00    +0.155 HD
ATOM     37  N   UNL     1     -16.179  23.137  28.217  0.00  0.00    -0.214 NA
BRANCH   4   3
ATOM      1  C   UNL     1     -18.401  27.405  27.322  0.00  0.00    +0.020 A 
ATOM      2  C   UNL     1     -17.423  26.620  28.039  0.00  0.00    +0.013 A 
ATOM      3  C   UNL     1     -16.955  25.346  27.508  0.00  0.00    +0.019 A 
ATOM     38  C   UNL     1     -17.501  24.892  26.237  0.00  0.00    +0.120 A 
ATOM     39  N   UNL     1     -18.443  25.669  25.570  0.00  0.00    -0.263 NA
ATOM     40  C   UNL     1     -18.901  26.896  26.073  0.00  0.00    +0.111 A 
ENDBRANCH   4   3
ENDBRANCH  10   9
BRANCH  12  13
ATOM     13  N   UNL     1     -12.084  17.478  28.271  0.00  0.00    -0.281 N 
ATOM     14  C   UNL     1     -12.137  16.127  27.970  0.00  0.00    +0.248 C 
ATOM     30  O   UNL     1     -12.878  15.325  28.520  0.00  0.00    -0.270 OA
ATOM     31  H   UNL     1     -11.294  17.993  27.882  0.00  0.00    +0.155 HD
BRANCH  14  15
ATOM     15  C   UNL     1     -11.226  15.586  26.916  0.00  0.00    +0.037 A 
ATOM     16  C   UNL     1     -10.076  16.356  26.437  0.00  0.00    +0.013 A 
ATOM     17  C   UNL     1      -9.222  15.818  25.408  0.00  0.00    +0.005 A 
ATOM     18  C   UNL     1      -9.517  14.500  24.850  0.00  0.00    -0.033 A 
ATOM     28  C   UNL     1     -10.661  13.755  25.347  0.00  0.00    +0.005 A 
ATOM     29  C   UNL     1     -11.500  14.280  26.356  0.00  0.00    +0.013 A 
BRANCH  18  19
ATOM     19  C   UNL     1      -8.673  13.857  23.734  0.00  0.00    +0.119 C 
BRANCH  19  20
ATOM     20  N   UNL     1      -8.431  12.386  23.821  0.00  0.00    -0.302 NA
ATOM     21  C   UNL     1      -7.746  11.993  25.133  0.00  0.00    +0.066 C 
ATOM     22  C   UNL     1      -7.521  10.448  25.218  0.00  0.00    -0.064 C 
ATOM     23  N   UNL     1      -6.693   9.990  24.016  0.00  0.00    +0.379 N 
ATOM     24  C   UNL     1      -6.430   8.547  24.123  0.00  0.00    -0.096 C 
ATOM     25  H   UNL     1      -5.711  10.517  24.061  0.00  0.00    -0.082 HD
ATOM     26  C   UNL     1      -7.365  10.379  22.707  0.00  0.00    -0.064 C 
ATOM     27  C   UNL     1      -7.611  11.912  22.646  0.00  0.00    +0.066 C 
ENDBRANCH  19  20
ENDBRANCH  18  19
ENDBRANCH  14  15
ENDBRANCH  12  13
TORSDOF 6
ENDMDL
MODEL 3
REMARK VINA RESULT:      -8.4      7.458     11.555
REMARK  Name = C:\Users\Docking\Desktop\test protocol\1iep_ligandH.pdb
REMARK  8 active torsions:
REMARK  status: ('A' for Active; 'I' for Inactive)
REMARK    1  A    between atoms: _5  and  _11
REMARK    2  A    between atoms: _19  and  _21
REMARK    3  A    between atoms: _22  and  _66
REMARK    4  A    between atoms: _27  and  _30
REMARK    5  A    between atoms: _32  and  _33
REMARK    6  A    between atoms: _38  and  _43
REMARK    7  A    between atoms: _43  and  _46
REMARK    8  A    between atoms: _53  and  _55
REMARK                            x       y       z     vdW  Elec       q    Type
REMARK                         _______ _______ _______ _____ _____    ______ ____
ROOT
ATOM     10  C   UNL     1      -8.438  13.137  23.334  0.00  0.00    +0.038 A 
ATOM     11  C   UNL     1      -9.110  13.971  24.265  0.00  0.00    +0.047 A 
ATOM     12  C   UNL     1     -10.219  13.469  25.061  0.00  0.00    +0.035 A 
ATOM     32  C   UNL     1     -10.616  12.111  24.886  0.00  0.00    +0.024 A 
ATOM     33  C   UNL     1      -9.945  11.250  23.944  0.00  0.00    +0.007 A 
ATOM     34  C   UNL     1      -8.852  11.740  23.154  0.00  0.00    -0.029 A 
ATOM     35  C   UNL     1      -8.173  10.774  22.155  0.00  0.00    +0.045 C 
ENDROOT
BRANCH  10   9
ATOM      4  C   UNL     1      -6.708  15.768  19.712  0.00  0.00    +0.077 A 
ATOM      5  C   UNL     1      -8.023  16.082  19.234  0.00  0.00    +0.048 A 
ATOM      6  C   UNL     1      -9.118  15.542  19.944  0.00  0.00    +0.116 A 
ATOM      7  N   UNL     1      -8.902  14.747  21.049  0.00  0.00    -0.223 NA
ATOM      8  C   UNL     1      -7.621  14.462  21.483  0.00  0.00    +0.220 A 
ATOM      9  N   UNL     1      -7.380  13.672  22.596  0.00  0.00    -0.283 N 
ATOM     36  H   UNL     1      -6.420  13.478  22.879  0.00  0.00    +0.155 HD
ATOM     37  N   UNL     1      -6.558  14.965  20.820  0.00  0.00    -0.214 NA
BRANCH   4   3
ATOM      1  C   UNL     1      -3.805  16.374  17.161  0.00  0.00    +0.020 A 
ATOM      2  C   UNL     1      -5.028  15.862  17.735  0.00  0.00    +0.013 A 
ATOM      3  C   UNL     1      -5.450  16.267  19.070  0.00  0.00    +0.019 A 
ATOM     38  C   UNL     1      -4.607  17.198  19.803  0.00  0.00    +0.120 A 
ATOM     39  N   UNL     1      -3.433  17.673  19.225  0.00  0.00    -0.263 NA
ATOM     40  C   UNL     1      -3.016  17.290  17.942  0.00  0.00    +0.111 A 
ENDBRANCH   4   3
ENDBRANCH  10   9
BRANCH  12  13
ATOM     13  N   UNL     1     -10.944  14.270  26.015  0.00  0.00    -0.281 N 
ATOM     14  C   UNL     1     -10.441  14.959  27.106  0.00  0.00    +0.248 C 
ATOM     30  O   UNL     1      -9.312  14.816  27.553  0.00  0.00    -0.270 OA
ATOM     31  H   UNL     1     -11.952  14.338  25.868  0.00  0.00    +0.155 HD
BRANCH  14  15
ATOM     15  C   UNL     1     -11.322  15.939  27.811  0.00  0.00    +0.037 A 
ATOM     16  C   UNL     1     -10.956  17.353  27.915  0.00  0.00    +0.013 A 
ATOM     17  C   UNL     1     -11.816  18.274  28.616  0.00  0.00    +0.005 A 
ATOM     18  C   UNL     1     -13.053  17.781  29.217  0.00  0.00    -0.033 A 
ATOM     28  C   UNL     1     -13.395  16.374  29.095  0.00  0.00    +0.005 A 
ATOM     29  C   UNL     1     -12.554  15.469  28.410  0.00  0.00    +0.013 A 
BRANCH  18  19
ATOM     19  C   UNL     1     -14.020  18.688  30.001  0.00  0.00    +0.119 C 
BRANCH  19  20
ATOM     20  N   UNL     1     -13.953  20.155  29.731  0.00  0.00    -0.302 NA
ATOM     21  C   UNL     1     -14.641  20.973  30.828  0.00  0.00    +0.066 C 
ATOM     22  C   UNL     1     -14.541  22.507  30.541  0.00  0.00    -0.064 C 
ATOM     23  N   UNL     1     -15.157  22.808  29.173  0.00  0.00    +0.379 N 
ATOM     24  C   UNL     1     -15.117  24.257  28.925  0.00  0.00    -0.096 C 
ATOM     25  H   UNL     1     -16.228  22.500  29.209  0.00  0.00    -0.082 HD
ATOM     26  C   UNL     1     -14.480  21.997  28.077  0.00  0.00    -0.064 C 
ATOM     27  C   UNL     1     -14.559  20.476  28.387  0.00  0.00    +0.066 C 
ENDBRANCH  19  20
ENDBRANCH  18  19
ENDBRANCH  14  15
ENDBRANCH  12  13
TORSDOF 6
ENDMDL
MODEL 4
REMARK VINA RESULT:      -8.3      9.634     17.855
REMARK  Name = C:\Users\Docking\Desktop\test protocol\1iep_ligandH.pdb
REMARK  8 active torsions:
REMARK  status: ('A' for Active; 'I' for Inactive)
REMARK    1  A    between atoms: _5  and  _11
REMARK    2  A    between atoms: _19  and  _21
REMARK    3  A    between atoms: _22  and  _66
REMARK    4  A    between atoms: _27  and  _30
REMARK    5  A    between atoms: _32  and  _33
REMARK    6  A    between atoms: _38  and  _43
REMARK    7  A    between atoms: _43  and  _46
REMARK    8  A    between atoms: _53  and  _55
REMARK                            x       y       z     vdW  Elec       q    Type
REMARK                         _______ _______ _______ _____ _____    ______ ____
ROOT
ATOM     10  C   UNL     1     -14.887  20.016  29.341  0.00  0.00    +0.038 A 
ATOM     11  C   UNL     1     -13.931  19.344  28.536  0.00  0.00    +0.047 A 
ATOM     12  C   UNL     1     -13.052  18.331  29.100  0.00  0.00    +0.035 A 
ATOM     32  C   UNL     1     -13.175  18.026  30.487  0.00  0.00    +0.024 A 
ATOM     33  C   UNL     1     -14.140  18.700  31.319  0.00  0.00    +0.007 A 
ATOM     34  C   UNL     1     -15.008  19.702  30.770  0.00  0.00    -0.029 A 
ATOM     35  C   UNL     1     -16.019  20.397  31.711  0.00  0.00    +0.045 C 
ENDROOT
BRANCH  10   9
ATOM      4  C   UNL     1     -15.945  24.561  28.219  0.00  0.00    +0.077 A 
ATOM      5  C   UNL     1     -14.782  25.061  28.895  0.00  0.00    +0.048 A 
ATOM      6  C   UNL     1     -13.942  24.116  29.525  0.00  0.00    +0.116 A 
ATOM      7  N   UNL     1     -14.250  22.774  29.475  0.00  0.00    -0.223 NA
ATOM      8  C   UNL     1     -15.380  22.326  28.817  0.00  0.00    +0.220 A 
ATOM      9  N   UNL     1     -15.705  20.980  28.748  0.00  0.00    -0.283 N 
ATOM     36  H   UNL     1     -16.552  20.690  28.258  0.00  0.00    +0.155 HD
ATOM     37  N   UNL     1     -16.200  23.208  28.208  0.00  0.00    -0.214 NA
BRANCH   4   3
ATOM      1  C   UNL     1     -18.273  27.555  27.261  0.00  0.00    +0.020 A 
ATOM      2  C   UNL     1     -17.319  26.752  27.991  0.00  0.00    +0.013 A 
ATOM      3  C   UNL     1     -16.928  25.435  27.503  0.00  0.00    +0.019 A 
ATOM     38  C   UNL     1     -17.525  24.957  26.265  0.00  0.00    +0.120 A 
ATOM     39  N   UNL     1     -18.441  25.753  25.585  0.00  0.00    -0.263 NA
ATOM     40  C   UNL     1     -18.827  27.021  26.045  0.00  0.00    +0.111 A 
ENDBRANCH   4   3
ENDBRANCH  10   9
BRANCH  12  13
ATOM     13  N   UNL     1     -12.058  17.621  28.334  0.00  0.00    -0.281 N 
ATOM     14  C   UNL     1     -12.050  16.282  27.982  0.00  0.00    +0.248 C 
ATOM     30  O   UNL     1     -12.796  15.438  28.457  0.00  0.00    -0.270 OA
ATOM     31  H   UNL     1     -11.263  18.174  28.013  0.00  0.00    +0.155 HD
BRANCH  14  15
ATOM     15  C   UNL     1     -11.062  15.807  26.967  0.00  0.00    +0.037 A 
ATOM     16  C   UNL     1     -11.256  14.545  26.249  0.00  0.00    +0.013 A 
ATOM     17  C   UNL     1     -10.278  14.102  25.287  0.00  0.00    +0.005 A 
ATOM     18  C   UNL     1      -9.097  14.925  25.035  0.00  0.00    -0.033 A 
ATOM     28  C   UNL     1      -8.932  16.176  25.757  0.00  0.00    +0.005 A 
ATOM     29  C   UNL     1      -9.888  16.612  26.702  0.00  0.00    +0.013 A 
BRANCH  18  19
ATOM     19  C   UNL     1      -7.992  14.520  24.042  0.00  0.00    +0.119 C 
BRANCH  19  20
ATOM     20  N   UNL     1      -7.892  15.304  22.774  0.00  0.00    -0.302 NA
ATOM     21  C   UNL     1      -7.600  14.409  21.567  0.00  0.00    +0.066 C 
ATOM     22  C   UNL     1      -7.521  15.242  20.246  0.00  0.00    -0.064 C 
ATOM     23  N   UNL     1      -6.448  16.323  20.392  0.00  0.00    +0.379 N 
ATOM     24  C   UNL     1      -6.331  17.070  19.131  0.00  0.00    -0.096 C 
ATOM     25  H   UNL     1      -5.475  15.810  20.573  0.00  0.00    -0.082 HD
ATOM     26  C   UNL     1      -6.730  17.216  21.592  0.00  0.00    -0.064 C 
ATOM     27  C   UNL     1      -6.836  16.374  22.894  0.00  0.00    +0.066 C 
ENDBRANCH  19  20
ENDBRANCH  18  19
ENDBRANCH  14  15
ENDBRANCH  12  13
TORSDOF 6
ENDMDL
MODEL 5
REMARK VINA RESULT:      -8.3      8.594     13.653
REMARK  Name = C:\Users\Docking\Desktop\test protocol\1iep_ligandH.pdb
REMARK  8 active torsions:
REMARK  status: ('A' for Active; 'I' for Inactive)
REMARK    1  A    between atoms: _5  and  _11
REMARK    2  A    between atoms: _19  and  _21
REMARK    3  A    between atoms: _22  and  _66
REMARK    4  A    between atoms: _27  and  _30
REMARK    5  A    between atoms: _32  and  _33
REMARK    6  A    between atoms: _38  and  _43
REMARK    7  A    between atoms: _43  and  _46
REMARK    8  A    between atoms: _53  and  _55
REMARK                            x       y       z     vdW  Elec       q    Type
REMARK                         _______ _______ _______ _____ _____    ______ ____
ROOT
ATOM     10  C   UNL     1      -4.392  16.057  18.803  0.00  0.00    +0.038 A 
ATOM     11  C   UNL     1      -5.110  16.850  17.872  0.00  0.00    +0.047 A 
ATOM     12  C   UNL     1      -4.419  17.727  16.940  0.00  0.00    +0.035 A 
ATOM     32  C   UNL     1      -2.995  17.770  16.982  0.00  0.00    +0.024 A 
ATOM     33  C   UNL     1      -2.249  16.972  17.923  0.00  0.00    +0.007 A 
ATOM     34  C   UNL     1      -2.925  16.106  18.846  0.00  0.00    -0.029 A 
ATOM     35  C   UNL     1      -2.075  15.278  19.837  0.00  0.00    +0.045 C 
ENDROOT
BRANCH  10   9
ATOM      4  C   UNL     1      -8.435  14.755  21.039  0.00  0.00    +0.077 A 
ATOM      5  C   UNL     1      -9.180  15.824  20.439  0.00  0.00    +0.048 A 
ATOM      6  C   UNL     1      -8.485  16.692  19.567  0.00  0.00    +0.116 A 
ATOM      7  N   UNL     1      -7.143  16.494  19.320  0.00  0.00    -0.223 NA
ATOM      8  C   UNL     1      -6.454  15.454  19.916  0.00  0.00    +0.220 A 
ATOM      9  N   UNL     1      -5.106  15.233  19.675  0.00  0.00    -0.283 N 
ATOM     36  H   UNL     1      -4.632  14.459  20.140  0.00  0.00    +0.155 HD
ATOM     37  N   UNL     1      -7.095  14.613  20.754  0.00  0.00    -0.214 NA
BRANCH   4   3
ATOM      1  C   UNL     1     -10.261  11.609  22.476  0.00  0.00    +0.020 A 
ATOM      2  C   UNL     1      -9.704  12.544  21.526  0.00  0.00    +0.013 A 
ATOM      3  C   UNL     1      -9.030  13.754  21.979  0.00  0.00    +0.019 A 
ATOM     38  C   UNL     1      -8.936  13.990  23.412  0.00  0.00    +0.120 A 
ATOM     39  N   UNL     1      -9.483  13.073  24.304  0.00  0.00    -0.263 NA
ATOM     40  C   UNL     1     -10.135  11.906  23.879  0.00  0.00    +0.111 A 
ENDBRANCH   4   3
ENDBRANCH  10   9
BRANCH  12  13
ATOM     13  N   UNL     1      -5.095  18.562  15.978  0.00  0.00    -0.281 N 
ATOM     14  C   UNL     1      -4.620  19.707  15.361  0.00  0.00    +0.248 C 
ATOM     30  O   UNL     1      -3.615  20.312  15.706  0.00  0.00    -0.270 OA
ATOM     31  H   UNL     1      -6.038  18.272  15.720  0.00  0.00    +0.155 HD
BRANCH  14  15
ATOM     15  C   UNL     1      -5.378  20.272  14.203  0.00  0.00    +0.037 A 
ATOM     16  C   UNL     1      -5.320  19.646  12.880  0.00  0.00    +0.013 A 
ATOM     17  C   UNL     1      -6.048  20.220  11.776  0.00  0.00    +0.005 A 
ATOM     18  C   UNL     1      -6.840  21.428  11.991  0.00  0.00    -0.033 A 
ATOM     28  C   UNL     1      -6.884  22.025  13.316  0.00  0.00    +0.005 A 
ATOM     29  C   UNL     1      -6.171  21.466  14.400  0.00  0.00    +0.013 A 
BRANCH  18  19
ATOM     19  C   UNL     1      -7.631  22.121  10.866  0.00  0.00    +0.119 C 
BRANCH  19  20
ATOM     20  N   UNL     1      -9.121  22.115  10.973  0.00  0.00    -0.302 NA
ATOM     21  C   UNL     1      -9.752  21.001  10.133  0.00  0.00    +0.066 C 
ATOM     22  C   UNL     1     -11.309  20.994  10.274  0.00  0.00    -0.064 C 
ATOM     23  N   UNL     1     -11.861  22.361   9.865  0.00  0.00    +0.379 N 
ATOM     24  C   UNL     1     -13.329  22.340   9.941  0.00  0.00    -0.096 C 
ATOM     25  H   UNL     1     -11.580  22.534   8.800  0.00  0.00    -0.082 HD
ATOM     26  C   UNL     1     -11.237  23.474  10.694  0.00  0.00    -0.064 C 
ATOM     27  C   UNL     1      -9.688  23.454  10.570  0.00  0.00    +0.066 C 
ENDBRANCH  19  20
ENDBRANCH  18  19
ENDBRANCH  14  15
ENDBRANCH  12  13
TORSDOF 6
ENDMDL
