MODEL 1
REMARK VINA RESULT:      -7.7      0.000      0.000
REMARK  Name = C:\Users\Docking\Desktop\test protocol\1iep_ligandH.pdb
REMARK  8 active torsions:
REMARK  status: ('A' for Active; 'I' for Inactive)
REMARK    1  A    between atoms: _5  and  _11
REMARK    2  A    between atoms: _19  and  _21
REMARK    3  A    between atoms: _22  and  _66
REMARK    4  A    between atoms: _27  and  _30
REMARK    5  A    between atoms: _32  and  _33
REMARK    6  A    between atoms: _38  and  _43
REMARK    7  A    between atoms: _43  and  _46
REMARK    8  A    between atoms: _53  and  _55
REMARK                            x       y       z     vdW  Elec       q    Type
REMARK                         _______ _______ _______ _____ _____    ______ ____
ROOT
ATOM     10  C   UNL     1      -5.839  56.648   6.524  0.00  0.00    +0.038 A 
ATOM     11  C   UNL     1      -6.911  56.278   5.671  0.00  0.00    +0.047 A 
ATOM     12  C   UNL     1      -8.252  56.072   6.195  0.00  0.00    +0.035 A 
ATOM     32  C   UNL     1      -8.467  56.254   7.593  0.00  0.00    +0.024 A 
ATOM     33  C   UNL     1      -7.389  56.628   8.473  0.00  0.00    +0.007 A 
ATOM     34  C   UNL     1      -6.063  56.831   7.963  0.00  0.00    -0.029 A 
ATOM     35  C   UNL     1      -4.944  57.226   8.954  0.00  0.00    +0.045 C 
ENDROOT
BRANCH  10   9
ATOM      4  C   UNL     1      -1.368  55.171   5.594  0.00  0.00    +0.077 A 
ATOM      5  C   UNL     1      -1.565  53.937   6.299  0.00  0.00    +0.048 A 
ATOM      6  C   UNL     1      -2.830  53.725   6.893  0.00  0.00    +0.116 A 
ATOM      7  N   UNL     1      -3.816  54.681   6.783  0.00  0.00    -0.223 NA
ATOM      8  C   UNL     1      -3.592  55.861   6.097  0.00  0.00    +0.220 A 
ATOM      9  N   UNL     1      -4.571  56.833   5.967  0.00  0.00    -0.283 N 
ATOM     36  H   UNL     1      -4.364  57.693   5.459  0.00  0.00    +0.155 HD
ATOM     37  N   UNL     1      -2.392  56.088   5.522  0.00  0.00    -0.214 NA
BRANCH   4   3
ATOM      1  C   UNL     1       1.217  56.583   3.020  0.00  0.00    +0.020 A 
ATOM      2  C   UNL     1      -0.046  56.250   3.638  0.00  0.00    +0.013 A 
ATOM      3  C   UNL     1      -0.088  55.540   4.910  0.00  0.00    +0.019 A 
ATOM     38  C   UNL     1       1.175  55.179   5.536  0.00  0.00    +0.120 A 
ATOM     39  N   UNL     1       2.376  55.511   4.916  0.00  0.00    -0.263 NA
ATOM     40  C   UNL     1       2.429  56.193   3.692  0.00  0.00    +0.111 A 
ENDBRANCH   4   3
ENDBRANCH  10   9
BRANCH  12  13
ATOM     13  N   UNL     1      -9.377  55.688   5.380  0.00  0.00    -0.281 N 
ATOM     14  C   UNL     1     -10.005  54.454   5.321  0.00  0.00    +0.248 C 
ATOM     30  O   UNL     1      -9.557  53.427   5.808  0.00  0.00    -0.270 OA
ATOM     31  H   UNL     1      -9.757  56.413   4.772  0.00  0.00    +0.155 HD
BRANCH  14  15
ATOM     15  C   UNL     1     -11.313  54.343   4.607  0.00  0.00    +0.037 A 
ATOM     16  C   UNL     1     -11.958  55.518   4.014  0.00  0.00    +0.013 A 
ATOM     17  C   UNL     1     -13.228  55.386   3.346  0.00  0.00    +0.005 A 
ATOM     18  C   UNL     1     -13.861  54.072   3.264  0.00  0.00    -0.033 A 
ATOM     28  C   UNL     1     -13.197  52.922   3.856  0.00  0.00    +0.005 A 
ATOM     29  C   UNL     1     -11.953  53.048   4.513  0.00  0.00    +0.013 A 
BRANCH  18  19
ATOM     19  C   UNL     1     -15.226  53.841   2.588  0.00  0.00    +0.119 C 
BRANCH  19  20
ATOM     20  N   UNL     1     -16.105  55.033   2.399  0.00  0.00    -0.302 NA
ATOM     21  C   UNL     1     -17.023  55.266   3.603  0.00  0.00    +0.066 C 
ATOM     22  C   UNL     1     -17.920  56.530   3.399  0.00  0.00    -0.064 C 
ATOM     23  N   UNL     1     -18.739  56.369   2.117  0.00  0.00    +0.379 N 
ATOM     24  C   UNL     1     -19.627  57.529   1.952  0.00  0.00    -0.096 C 
ATOM     25  H   UNL     1     -19.382  55.466   2.238  0.00  0.00    -0.082 HD
ATOM     26  C   UNL     1     -17.835  56.134   0.915  0.00  0.00    -0.064 C 
ATOM     27  C   UNL     1     -16.927  54.893   1.141  0.00  0.00    +0.066 C 
ENDBRANCH  19  20
ENDBRANCH  18  19
ENDBRANCH  14  15
ENDBRANCH  12  13
TORSDOF 6
ENDMDL
MODEL 2
REMARK VINA RESULT:      -7.5     21.576     24.023
REMARK  Name = C:\Users\Docking\Desktop\test protocol\1iep_ligandH.pdb
REMARK  8 active torsions:
REMARK  status: ('A' for Active; 'I' for Inactive)
REMARK    1  A    between atoms: _5  and  _11
REMARK    2  A    between atoms: _19  and  _21
REMARK    3  A    between atoms: _22  and  _66
REMARK    4  A    between atoms: _27  and  _30
REMARK    5  A    between atoms: _32  and  _33
REMARK    6  A    between atoms: _38  and  _43
REMARK    7  A    between atoms: _43  and  _46
REMARK    8  A    between atoms: _53  and  _55
REMARK                            x       y       z     vdW  Elec       q    Type
REMARK                         _______ _______ _______ _____ _____    ______ ____
ROOT
ATOM     10  C   UNL     1     -26.953  50.348  -9.220  0.00  0.00    +0.038 A 
ATOM     11  C   UNL     1     -26.462  51.669  -9.380  0.00  0.00    +0.047 A 
ATOM     12  C   UNL     1     -26.192  52.217 -10.700  0.00  0.00    +0.035 A 
ATOM     32  C   UNL     1     -26.438  51.392 -11.837  0.00  0.00    +0.024 A 
ATOM     33  C   UNL     1     -26.936  50.047 -11.692  0.00  0.00    +0.007 A 
ATOM     34  C   UNL     1     -27.201  49.500 -10.392  0.00  0.00    -0.029 A 
ATOM     35  C   UNL     1     -27.729  48.050 -10.297  0.00  0.00    +0.045 C 
ENDROOT
BRANCH  10   9
ATOM      4  C   UNL     1     -25.520  48.269  -5.138  0.00  0.00    +0.077 A 
ATOM      5  C   UNL     1     -24.184  48.091  -5.629  0.00  0.00    +0.048 A 
ATOM      6  C   UNL     1     -23.908  48.541  -6.939  0.00  0.00    +0.116 A 
ATOM      7  N   UNL     1     -24.903  49.125  -7.694  0.00  0.00    -0.223 NA
ATOM      8  C   UNL     1     -26.181  49.281  -7.191  0.00  0.00    +0.220 A 
ATOM      9  N   UNL     1     -27.195  49.872  -7.929  0.00  0.00    -0.283 N 
ATOM     36  H   UNL     1     -28.127  49.962  -7.525  0.00  0.00    +0.155 HD
ATOM     37  N   UNL     1     -26.470  48.857  -5.943  0.00  0.00    -0.214 NA
BRANCH   4   3
ATOM      1  C   UNL     1     -25.520  47.012  -1.434  0.00  0.00    +0.020 A 
ATOM      2  C   UNL     1     -25.038  47.408  -2.737  0.00  0.00    +0.013 A 
ATOM      3  C   UNL     1     -25.965  47.848  -3.772  0.00  0.00    +0.019 A 
ATOM     38  C   UNL     1     -27.385  47.877  -3.453  0.00  0.00    +0.120 A 
ATOM     39  N   UNL     1     -27.820  47.488  -2.190  0.00  0.00    -0.263 NA
ATOM     40  C   UNL     1     -26.937  47.062  -1.187  0.00  0.00    +0.111 A 
ENDBRANCH   4   3
ENDBRANCH  10   9
BRANCH  12  13
ATOM     13  N   UNL     1     -25.685  53.548 -10.923  0.00  0.00    -0.281 N 
ATOM     14  C   UNL     1     -26.406  54.723 -11.053  0.00  0.00    +0.248 C 
ATOM     30  O   UNL     1     -27.617  54.778 -11.209  0.00  0.00    -0.270 OA
ATOM     31  H   UNL     1     -24.671  53.634 -10.995  0.00  0.00    +0.155 HD
BRANCH  14  15
ATOM     15  C   UNL     1     -25.675  56.027 -11.017  0.00  0.00    +0.037 A 
ATOM     16  C   UNL     1     -26.337  57.280 -11.388  0.00  0.00    +0.013 A 
ATOM     17  C   UNL     1     -25.604  58.521 -11.362  0.00  0.00    +0.005 A 
ATOM     18  C   UNL     1     -24.199  58.514 -10.961  0.00  0.00    -0.033 A 
ATOM     28  C   UNL     1     -23.568  57.257 -10.593  0.00  0.00    +0.005 A 
ATOM     29  C   UNL     1     -24.284  56.039 -10.619  0.00  0.00    +0.013 A 
BRANCH  18  19
ATOM     19  C   UNL     1     -23.334  59.787 -10.924  0.00  0.00    +0.119 C 
BRANCH  19  20
ATOM     20  N   UNL     1     -23.499  60.692  -9.748  0.00  0.00    -0.302 NA
ATOM     21  C   UNL     1     -24.033  59.948  -8.521  0.00  0.00    +0.066 C 
ATOM     22  C   UNL     1     -24.179  60.905  -7.293  0.00  0.00    -0.064 C 
ATOM     23  N   UNL     1     -25.099  62.070  -7.664  0.00  0.00    +0.379 N 
ATOM     24  C   UNL     1     -25.284  62.940  -6.494  0.00  0.00    -0.096 C 
ATOM     25  H   UNL     1     -26.094  61.642  -7.929  0.00  0.00    -0.082 HD
ATOM     26  C   UNL     1     -24.577  62.813  -8.885  0.00  0.00    -0.064 C 
ATOM     27  C   UNL     1     -24.408  61.847 -10.090  0.00  0.00    +0.066 C 
ENDBRANCH  19  20
ENDBRANCH  18  19
ENDBRANCH  14  15
ENDBRANCH  12  13
TORSDOF 6
ENDMDL
MODEL 3
REMARK VINA RESULT:      -7.4      9.665     18.601
REMARK  Name = C:\Users\Docking\Desktop\test protocol\1iep_ligandH.pdb
REMARK  8 active torsions:
REMARK  status: ('A' for Active; 'I' for Inactive)
REMARK    1  A    between atoms: _5  and  _11
REMARK    2  A    between atoms: _19  and  _21
REMARK    3  A    between atoms: _22  and  _66
REMARK    4  A    between atoms: _27  and  _30
REMARK    5  A    between atoms: _32  and  _33
REMARK    6  A    between atoms: _38  and  _43
REMARK    7  A    between atoms: _43  and  _46
REMARK    8  A    between atoms: _53  and  _55
REMARK                            x       y       z     vdW  Elec       q    Type
REMARK                         _______ _______ _______ _____ _____    ______ ____
ROOT
ATOM     10  C   UNL     1     -23.559  58.791   1.073  0.00  0.00    +0.038 A 
ATOM     11  C   UNL     1     -22.241  58.299   0.894  0.00  0.00    +0.047 A 
ATOM     12  C   UNL     1     -21.532  57.637   1.978  0.00  0.00    +0.035 A 
ATOM     32  C   UNL     1     -22.197  57.490   3.230  0.00  0.00    +0.024 A 
ATOM     33  C   UNL     1     -23.536  57.985   3.429  0.00  0.00    +0.007 A 
ATOM     34  C   UNL     1     -24.240  58.642   2.365  0.00  0.00    -0.029 A 
ATOM     35  C   UNL     1     -25.672  59.158   2.637  0.00  0.00    +0.045 C 
ENDROOT
BRANCH  10   9
ATOM      4  C   UNL     1     -26.224  58.687  -2.918  0.00  0.00    +0.077 A 
ATOM      5  C   UNL     1     -26.341  57.257  -2.873  0.00  0.00    +0.048 A 
ATOM      6  C   UNL     1     -25.694  56.586  -1.811  0.00  0.00    +0.116 A 
ATOM      7  N   UNL     1     -24.987  57.302  -0.869  0.00  0.00    -0.223 NA
ATOM      8  C   UNL     1     -24.893  58.679  -0.942  0.00  0.00    +0.220 A 
ATOM      9  N   UNL     1     -24.193  59.419  -0.002  0.00  0.00    -0.283 N 
ATOM     36  H   UNL     1     -24.141  60.433  -0.095  0.00  0.00    +0.155 HD
ATOM     37  N   UNL     1     -25.500  59.343  -1.948  0.00  0.00    -0.214 NA
BRANCH   4   3
ATOM      1  C   UNL     1     -27.479  60.031  -6.370  0.00  0.00    +0.020 A 
ATOM      2  C   UNL     1     -26.857  59.174  -5.388  0.00  0.00    +0.013 A 
ATOM      3  C   UNL     1     -26.853  59.538  -3.976  0.00  0.00    +0.019 A 
ATOM     38  C   UNL     1     -27.494  60.786  -3.589  0.00  0.00    +0.120 A 
ATOM     39  N   UNL     1     -28.084  61.592  -4.557  0.00  0.00    -0.263 NA
ATOM     40  C   UNL     1     -28.092  61.253  -5.919  0.00  0.00    +0.111 A 
ENDBRANCH   4   3
ENDBRANCH  10   9
BRANCH  12  13
ATOM     13  N   UNL     1     -20.190  57.124   1.858  0.00  0.00    -0.281 N 
ATOM     14  C   UNL     1     -19.780  55.940   1.267  0.00  0.00    +0.248 C 
ATOM     30  O   UNL     1     -20.532  55.035   0.938  0.00  0.00    -0.270 OA
ATOM     31  H   UNL     1     -19.452  57.705   2.257  0.00  0.00    +0.155 HD
BRANCH  14  15
ATOM     15  C   UNL     1     -18.322  55.724   1.018  0.00  0.00    +0.037 A 
ATOM     16  C   UNL     1     -17.358  56.819   1.153  0.00  0.00    +0.013 A 
ATOM     17  C   UNL     1     -15.959  56.588   0.890  0.00  0.00    +0.005 A 
ATOM     18  C   UNL     1     -15.517  55.254   0.491  0.00  0.00    -0.033 A 
ATOM     28  C   UNL     1     -16.494  54.185   0.371  0.00  0.00    +0.005 A 
ATOM     29  C   UNL     1     -17.865  54.408   0.626  0.00  0.00    +0.013 A 
BRANCH  18  19
ATOM     19  C   UNL     1     -14.047  54.921   0.171  0.00  0.00    +0.119 C 
BRANCH  19  20
ATOM     20  N   UNL     1     -13.739  53.521  -0.246  0.00  0.00    -0.302 NA
ATOM     21  C   UNL     1     -13.298  52.653   0.936  0.00  0.00    +0.066 C 
ATOM     22  C   UNL     1     -13.001  51.186   0.486  0.00  0.00    -0.064 C 
ATOM     23  N   UNL     1     -11.930  51.198  -0.606  0.00  0.00    +0.379 N 
ATOM     24  C   UNL     1     -11.606  49.816  -0.991  0.00  0.00    -0.096 C 
ATOM     25  H   UNL     1     -11.009  51.652  -0.172  0.00  0.00    -0.082 HD
ATOM     26  C   UNL     1     -12.359  52.060  -1.785  0.00  0.00    -0.064 C 
ATOM     27  C   UNL     1     -12.680  53.509  -1.321  0.00  0.00    +0.066 C 
ENDBRANCH  19  20
ENDBRANCH  18  19
ENDBRANCH  14  15
ENDBRANCH  12  13
TORSDOF 6
ENDMDL
MODEL 4
REMARK VINA RESULT:      -7.4      9.276     16.437
REMARK  Name = C:\Users\Docking\Desktop\test protocol\1iep_ligandH.pdb
REMARK  8 active torsions:
REMARK  status: ('A' for Active; 'I' for Inactive)
REMARK    1  A    between atoms: _5  and  _11
REMARK    2  A    between atoms: _19  and  _21
REMARK    3  A    between atoms: _22  and  _66
REMARK    4  A    between atoms: _27  and  _30
REMARK    5  A    between atoms: _32  and  _33
REMARK    6  A    between atoms: _38  and  _43
REMARK    7  A    between atoms: _43  and  _46
REMARK    8  A    between atoms: _53  and  _55
REMARK                            x       y       z     vdW  Elec       q    Type
REMARK                         _______ _______ _______ _____ _____    ______ ____
ROOT
ATOM     10  C   UNL     1     -19.874  58.179   2.418  0.00  0.00    +0.038 A 
ATOM     11  C   UNL     1     -18.904  57.474   1.660  0.00  0.00    +0.047 A 
ATOM     12  C   UNL     1     -17.928  56.610   2.305  0.00  0.00    +0.035 A 
ATOM     32  C   UNL     1     -17.970  56.485   3.724  0.00  0.00    +0.024 A 
ATOM     33  C   UNL     1     -18.949  57.194   4.510  0.00  0.00    +0.007 A 
ATOM     34  C   UNL     1     -19.913  58.050   3.880  0.00  0.00    -0.029 A 
ATOM     35  C   UNL     1     -20.935  58.792   4.772  0.00  0.00    +0.045 C 
ENDROOT
BRANCH  10   9
ATOM      4  C   UNL     1     -24.118  58.937   0.308  0.00  0.00    +0.077 A 
ATOM      5  C   UNL     1     -24.541  57.586   0.539  0.00  0.00    +0.048 A 
ATOM      6  C   UNL     1     -23.634  56.726   1.197  0.00  0.00    +0.116 A 
ATOM      7  N   UNL     1     -22.399  57.193   1.591  0.00  0.00    -0.223 NA
ATOM      8  C   UNL     1     -22.022  58.502   1.352  0.00  0.00    +0.220 A 
ATOM      9  N   UNL     1     -20.788  58.995   1.747  0.00  0.00    -0.283 N 
ATOM     36  H   UNL     1     -20.545  59.964   1.545  0.00  0.00    +0.155 HD
ATOM     37  N   UNL     1     -22.870  59.342   0.724  0.00  0.00    -0.214 NA
BRANCH   4   3
ATOM      1  C   UNL     1     -26.504  60.731  -2.220  0.00  0.00    +0.020 A 
ATOM      2  C   UNL     1     -25.700  59.702  -1.603  0.00  0.00    +0.013 A 
ATOM      3  C   UNL     1     -24.966  59.967  -0.372  0.00  0.00    +0.019 A 
ATOM     38  C   UNL     1     -25.069  61.295   0.215  0.00  0.00    +0.120 A 
ATOM     39  N   UNL     1     -25.851  62.267  -0.402  0.00  0.00    -0.263 NA
ATOM     40  C   UNL     1     -26.560  62.023  -1.588  0.00  0.00    +0.111 A 
ENDBRANCH   4   3
ENDBRANCH  10   9
BRANCH  12  13
ATOM     13  N   UNL     1     -16.915  55.876   1.589  0.00  0.00    -0.281 N 
ATOM     14  C   UNL     1     -15.545  55.893   1.795  0.00  0.00    +0.248 C 
ATOM     30  O   UNL     1     -14.961  56.709   2.492  0.00  0.00    -0.270 OA
ATOM     31  H   UNL     1     -17.248  55.271   0.838  0.00  0.00    +0.155 HD
BRANCH  14  15
ATOM     15  C   UNL     1     -14.700  54.862   1.118  0.00  0.00    +0.037 A 
ATOM     16  C   UNL     1     -13.320  54.614   1.541  0.00  0.00    +0.013 A 
ATOM     17  C   UNL     1     -12.521  53.626   0.860  0.00  0.00    +0.005 A 
ATOM     18  C   UNL     1     -13.103  52.877  -0.252  0.00  0.00    -0.033 A 
ATOM     28  C   UNL     1     -14.476  53.140  -0.647  0.00  0.00    +0.005 A 
ATOM     29  C   UNL     1     -15.262  54.108   0.018  0.00  0.00    +0.013 A 
BRANCH  18  19
ATOM     19  C   UNL     1     -12.317  51.820  -1.050  0.00  0.00    +0.119 C 
BRANCH  19  20
ATOM     20  N   UNL     1     -13.088  50.979  -2.013  0.00  0.00    -0.302 NA
ATOM     21  C   UNL     1     -13.122  49.507  -1.593  0.00  0.00    +0.066 C 
ATOM     22  C   UNL     1     -13.951  48.646  -2.600  0.00  0.00    -0.064 C 
ATOM     23  N   UNL     1     -13.358  48.795  -4.003  0.00  0.00    +0.379 N 
ATOM     24  C   UNL     1     -14.100  47.941  -4.942  0.00  0.00    -0.096 C 
ATOM     25  H   UNL     1     -12.307  48.425  -3.966  0.00  0.00    -0.082 HD
ATOM     26  C   UNL     1     -13.319  50.256  -4.428  0.00  0.00    -0.064 C 
ATOM     27  C   UNL     1     -12.517  51.108  -3.404  0.00  0.00    +0.066 C 
ENDBRANCH  19  20
ENDBRANCH  18  19
ENDBRANCH  14  15
ENDBRANCH  12  13
TORSDOF 6
ENDMDL
MODEL 5
REMARK VINA RESULT:      -7.4     12.174     13.318
REMARK  Name = C:\Users\Docking\Desktop\test protocol\1iep_ligandH.pdb
REMARK  8 active torsions:
REMARK  status: ('A' for Active; 'I' for Inactive)
REMARK    1  A    between atoms: _5  and  _11
REMARK    2  A    between atoms: _19  and  _21
REMARK    3  A    between atoms: _22  and  _66
REMARK    4  A    between atoms: _27  and  _30
REMARK    5  A    between atoms: _32  and  _33
REMARK    6  A    between atoms: _38  and  _43
REMARK    7  A    between atoms: _43  and  _46
REMARK    8  A    between atoms: _53  and  _55
REMARK                            x       y       z     vdW  Elec       q    Type
REMARK                         _______ _______ _______ _____ _____    ______ ____
ROOT
ATOM     10  C   UNL     1      -1.175  68.140   7.997  0.00  0.00    +0.038 A 
ATOM     11  C   UNL     1      -2.469  67.989   7.437  0.00  0.00    +0.047 A 
ATOM     12  C   UNL     1      -3.661  68.050   8.269  0.00  0.00    +0.035 A 
ATOM     32  C   UNL     1      -3.497  68.268   9.668  0.00  0.00    +0.024 A 
ATOM     33  C   UNL     1      -2.189  68.422  10.254  0.00  0.00    +0.007 A 
ATOM     34  C   UNL     1      -1.010  68.361   9.439  0.00  0.00    -0.029 A 
ATOM     35  C   UNL     1       0.368  68.527  10.122  0.00  0.00    +0.045 C 
ENDROOT
BRANCH  10   9
ATOM      4  C   UNL     1       2.161  65.679   5.577  0.00  0.00    +0.077 A 
ATOM      5  C   UNL     1       1.668  64.421   6.060  0.00  0.00    +0.048 A 
ATOM      6  C   UNL     1       0.559  64.452   6.935  0.00  0.00    +0.116 A 
ATOM      7  N   UNL     1      -0.008  65.656   7.293  0.00  0.00    -0.223 NA
ATOM      8  C   UNL     1       0.493  66.851   6.811  0.00  0.00    +0.220 A 
ATOM      9  N   UNL     1      -0.065  68.073   7.151  0.00  0.00    -0.283 N 
ATOM     36  H   UNL     1       0.338  68.933   6.780  0.00  0.00    +0.155 HD
ATOM     37  N   UNL     1       1.553  66.849   5.975  0.00  0.00    -0.214 NA
BRANCH   4   3
ATOM      1  C   UNL     1       5.785  65.678   4.105  0.00  0.00    +0.020 A 
ATOM      2  C   UNL     1       4.697  65.535   5.045  0.00  0.00    +0.013 A 
ATOM      3  C   UNL     1       3.324  65.811   4.644  0.00  0.00    +0.019 A 
ATOM     38  C   UNL     1       3.082  66.232   3.272  0.00  0.00    +0.120 A 
ATOM     39  N   UNL     1       4.149  66.362   2.389  0.00  0.00    -0.263 NA
ATOM     40  C   UNL     1       5.476  66.101   2.764  0.00  0.00    +0.111 A 
ENDBRANCH   4   3
ENDBRANCH  10   9
BRANCH  12  13
ATOM     13  N   UNL     1      -5.000  67.895   7.758  0.00  0.00    -0.281 N 
ATOM     14  C   UNL     1      -6.037  68.813   7.796  0.00  0.00    +0.248 C 
ATOM     30  O   UNL     1      -6.033  69.833   8.469  0.00  0.00    -0.270 OA
ATOM     31  H   UNL     1      -5.209  67.001   7.315  0.00  0.00    +0.155 HD
BRANCH  14  15
ATOM     15  C   UNL     1      -7.261  68.554   6.979  0.00  0.00    +0.037 A 
ATOM     16  C   UNL     1      -8.495  68.058   7.595  0.00  0.00    +0.013 A 
ATOM     17  C   UNL     1      -9.656  67.799   6.782  0.00  0.00    +0.005 A 
ATOM     18  C   UNL     1      -9.590  68.038   5.342  0.00  0.00    -0.033 A 
ATOM     28  C   UNL     1      -8.355  68.535   4.758  0.00  0.00    +0.005 A 
ATOM     29  C   UNL     1      -7.214  68.789   5.552  0.00  0.00    +0.013 A 
BRANCH  18  19
ATOM     19  C   UNL     1     -10.774  67.770   4.394  0.00  0.00    +0.119 C 
BRANCH  19  20
ATOM     20  N   UNL     1     -11.124  68.843   3.417  0.00  0.00    -0.302 NA
ATOM     21  C   UNL     1     -12.607  69.218   3.482  0.00  0.00    +0.066 C 
ATOM     22  C   UNL     1     -12.951  70.358   2.469  0.00  0.00    -0.064 C 
ATOM     23  N   UNL     1     -12.566  69.914   1.056  0.00  0.00    +0.379 N 
ATOM     24  C   UNL     1     -12.942  70.961   0.094  0.00  0.00    -0.096 C 
ATOM     25  H   UNL     1     -13.161  69.003   0.814  0.00  0.00    -0.082 HD
ATOM     26  C   UNL     1     -11.093  69.537   0.983  0.00  0.00    -0.064 C 
ATOM     27  C   UNL     1     -10.756  68.424   2.014  0.00  0.00    +0.066 C 
ENDBRANCH  19  20
ENDBRANCH  18  19
ENDBRANCH  14  15
ENDBRANCH  12  13
TORSDOF 6
ENDMDL
