MODEL 1
REMARK VINA RESULT:      -8.2      0.000      0.000
REMARK  Name = C:\Users\Docking\Desktop\test protocol\1iep_ligandH.pdb
REMARK  8 active torsions:
REMARK  status: ('A' for Active; 'I' for Inactive)
REMARK    1  A    between atoms: _5  and  _11
REMARK    2  A    between atoms: _19  and  _21
REMARK    3  A    between atoms: _22  and  _66
REMARK    4  A    between atoms: _27  and  _30
REMARK    5  A    between atoms: _32  and  _33
REMARK    6  A    between atoms: _38  and  _43
REMARK    7  A    between atoms: _43  and  _46
REMARK    8  A    between atoms: _53  and  _55
REMARK                            x       y       z     vdW  Elec       q    Type
REMARK                         _______ _______ _______ _____ _____    ______ ____
ROOT
ATOM     10  C   UNL     1      19.926  25.518   3.976  0.00  0.00    +0.038 A 
ATOM     11  C   UNL     1      18.653  25.303   4.563  0.00  0.00    +0.047 A 
ATOM     12  C   UNL     1      18.050  23.979   4.588  0.00  0.00    +0.035 A 
ATOM     32  C   UNL     1      18.773  22.896   4.008  0.00  0.00    +0.024 A 
ATOM     33  C   UNL     1      20.068  23.097   3.406  0.00  0.00    +0.007 A 
ATOM     34  C   UNL     1      20.667  24.401   3.377  0.00  0.00    -0.029 A 
ATOM     35  C   UNL     1      22.054  24.559   2.712  0.00  0.00    +0.045 C 
ENDROOT
BRANCH  10   9
ATOM      4  C   UNL     1      20.995  29.661   1.802  0.00  0.00    +0.077 A 
ATOM      5  C   UNL     1      20.475  29.205   0.546  0.00  0.00    +0.048 A 
ATOM      6  C   UNL     1      19.947  27.895   0.499  0.00  0.00    +0.116 A 
ATOM      7  N   UNL     1      19.945  27.109   1.632  0.00  0.00    -0.223 NA
ATOM      8  C   UNL     1      20.457  27.579   2.827  0.00  0.00    +0.220 A 
ATOM      9  N   UNL     1      20.458  26.809   3.980  0.00  0.00    -0.283 N 
ATOM     36  H   UNL     1      20.851  27.190   4.840  0.00  0.00    +0.155 HD
ATOM     37  N   UNL     1      20.968  28.826   2.897  0.00  0.00    -0.214 NA
BRANCH   4   3
ATOM      1  C   UNL     1      23.041  32.959   1.314  0.00  0.00    +0.020 A 
ATOM      2  C   UNL     1      22.502  31.642   1.065  0.00  0.00    +0.013 A 
ATOM      3  C   UNL     1      21.583  31.022   2.011  0.00  0.00    +0.019 A 
ATOM     38  C   UNL     1      21.227  31.768   3.209  0.00  0.00    +0.120 A 
ATOM     39  N   UNL     1      21.763  33.034   3.423  0.00  0.00    -0.263 NA
ATOM     40  C   UNL     1      22.650  33.640   2.520  0.00  0.00    +0.111 A 
ENDBRANCH   4   3
ENDBRANCH  10   9
BRANCH  12  13
ATOM     13  N   UNL     1      16.757  23.702   5.162  0.00  0.00    -0.281 N 
ATOM     14  C   UNL     1      16.455  22.838   6.203  0.00  0.00    +0.248 C 
ATOM     30  O   UNL     1      17.228  22.008   6.658  0.00  0.00    -0.270 OA
ATOM     31  H   UNL     1      15.969  24.203   4.753  0.00  0.00    +0.155 HD
BRANCH  14  15
ATOM     15  C   UNL     1      15.093  22.895   6.816  0.00  0.00    +0.037 A 
ATOM     16  C   UNL     1      14.828  22.312   8.134  0.00  0.00    +0.013 A 
ATOM     17  C   UNL     1      13.502  22.366   8.695  0.00  0.00    +0.005 A 
ATOM     18  C   UNL     1      12.429  23.006   7.937  0.00  0.00    -0.033 A 
ATOM     28  C   UNL     1      12.721  23.581   6.634  0.00  0.00    +0.005 A 
ATOM     29  C   UNL     1      14.020  23.529   6.081  0.00  0.00    +0.013 A 
BRANCH  18  19
ATOM     19  C   UNL     1      10.979  23.090   8.449  0.00  0.00    +0.119 C 
BRANCH  19  20
ATOM     20  N   UNL     1      10.268  24.393   8.280  0.00  0.00    -0.302 NA
ATOM     21  C   UNL     1      10.926  25.515   9.088  0.00  0.00    +0.066 C 
ATOM     22  C   UNL     1      10.184  26.876   8.881  0.00  0.00    -0.064 C 
ATOM     23  N   UNL     1       8.714  26.716   9.273  0.00  0.00    +0.379 N 
ATOM     24  C   UNL     1       8.026  28.008   9.135  0.00  0.00    -0.096 C 
ATOM     25  H   UNL     1       8.680  26.428  10.349  0.00  0.00    -0.082 HD
ATOM     26  C   UNL     1       8.053  25.600   8.476  0.00  0.00    -0.064 C 
ATOM     27  C   UNL     1       8.816  24.259   8.665  0.00  0.00    +0.066 C 
ENDBRANCH  19  20
ENDBRANCH  18  19
ENDBRANCH  14  15
ENDBRANCH  12  13
TORSDOF 6
ENDMDL
MODEL 2
REMARK VINA RESULT:      -7.9      2.103      3.025
REMARK  Name = C:\Users\Docking\Desktop\test protocol\1iep_ligandH.pdb
REMARK  8 active torsions:
REMARK  status: ('A' for Active; 'I' for Inactive)
REMARK    1  A    between atoms: _5  and  _11
REMARK    2  A    between atoms: _19  and  _21
REMARK    3  A    between atoms: _22  and  _66
REMARK    4  A    between atoms: _27  and  _30
REMARK    5  A    between atoms: _32  and  _33
REMARK    6  A    between atoms: _38  and  _43
REMARK    7  A    between atoms: _43  and  _46
REMARK    8  A    between atoms: _53  and  _55
REMARK                            x       y       z     vdW  Elec       q    Type
REMARK                         _______ _______ _______ _____ _____    ______ ____
ROOT
ATOM     10  C   UNL     1      19.973  25.773   4.120  0.00  0.00    +0.038 A 
ATOM     11  C   UNL     1      18.633  25.674   4.575  0.00  0.00    +0.047 A 
ATOM     12  C   UNL     1      17.969  24.385   4.688  0.00  0.00    +0.035 A 
ATOM     32  C   UNL     1      18.701  23.215   4.331  0.00  0.00    +0.024 A 
ATOM     33  C   UNL     1      20.063  23.296   3.866  0.00  0.00    +0.007 A 
ATOM     34  C   UNL     1      20.722  24.566   3.751  0.00  0.00    -0.029 A 
ATOM     35  C   UNL     1      22.182  24.594   3.240  0.00  0.00    +0.045 C 
ENDROOT
BRANCH  10   9
ATOM      4  C   UNL     1      21.103  29.753   1.689  0.00  0.00    +0.077 A 
ATOM      5  C   UNL     1      20.494  29.263   0.486  0.00  0.00    +0.048 A 
ATOM      6  C   UNL     1      19.907  27.978   0.533  0.00  0.00    +0.116 A 
ATOM      7  N   UNL     1      19.933  27.248   1.702  0.00  0.00    -0.223 NA
ATOM      8  C   UNL     1      20.530  27.750   2.843  0.00  0.00    +0.220 A 
ATOM      9  N   UNL     1      20.561  27.036   4.031  0.00  0.00    -0.283 N 
ATOM     36  H   UNL     1      21.017  27.438   4.850  0.00  0.00    +0.155 HD
ATOM     37  N   UNL     1      21.099  28.973   2.824  0.00  0.00    -0.214 NA
BRANCH   4   3
ATOM      1  C   UNL     1      23.271  32.920   0.933  0.00  0.00    +0.020 A 
ATOM      2  C   UNL     1      22.661  31.620   0.779  0.00  0.00    +0.013 A 
ATOM      3  C   UNL     1      21.762  31.093   1.798  0.00  0.00    +0.019 A 
ATOM     38  C   UNL     1      21.498  31.915   2.970  0.00  0.00    +0.120 A 
ATOM     39  N   UNL     1      22.101  33.163   3.092  0.00  0.00    -0.263 NA
ATOM     40  C   UNL     1      22.970  33.679   2.118  0.00  0.00    +0.111 A 
ENDBRANCH   4   3
ENDBRANCH  10   9
BRANCH  12  13
ATOM     13  N   UNL     1      16.608  24.224   5.136  0.00  0.00    -0.281 N 
ATOM     14  C   UNL     1      15.572  23.565   4.493  0.00  0.00    +0.248 C 
ATOM     30  O   UNL     1      15.606  23.195   3.329  0.00  0.00    -0.270 OA
ATOM     31  H   UNL     1      16.380  24.647   6.035  0.00  0.00    +0.155 HD
BRANCH  14  15
ATOM     15  C   UNL     1      14.312  23.290   5.249  0.00  0.00    +0.037 A 
ATOM     16  C   UNL     1      13.008  23.301   4.581  0.00  0.00    +0.013 A 
ATOM     17  C   UNL     1      11.807  23.050   5.337  0.00  0.00    +0.005 A 
ATOM     18  C   UNL     1      11.905  22.784   6.770  0.00  0.00    -0.033 A 
ATOM     28  C   UNL     1      13.212  22.774   7.406  0.00  0.00    +0.005 A 
ATOM     29  C   UNL     1      14.391  23.021   6.669  0.00  0.00    +0.013 A 
BRANCH  18  19
ATOM     19  C   UNL     1      10.674  22.526   7.659  0.00  0.00    +0.119 C 
BRANCH  19  20
ATOM     20  N   UNL     1      10.881  21.715   8.896  0.00  0.00    -0.302 NA
ATOM     21  C   UNL     1      10.629  20.224   8.653  0.00  0.00    +0.066 C 
ATOM     22  C   UNL     1      10.872  19.388   9.952  0.00  0.00    -0.064 C 
ATOM     23  N   UNL     1       9.972  19.914  11.070  0.00  0.00    +0.379 N 
ATOM     24  C   UNL     1      10.156  19.092  12.276  0.00  0.00    -0.096 C 
ATOM     25  H   UNL     1       8.914  19.794  10.737  0.00  0.00    -0.082 HD
ATOM     26  C   UNL     1      10.213  21.396  11.316  0.00  0.00    -0.064 C 
ATOM     27  C   UNL     1       9.998  22.215  10.012  0.00  0.00    +0.066 C 
ENDBRANCH  19  20
ENDBRANCH  18  19
ENDBRANCH  14  15
ENDBRANCH  12  13
TORSDOF 6
ENDMDL
MODEL 3
REMARK VINA RESULT:      -7.9      3.377     12.315
REMARK  Name = C:\Users\Docking\Desktop\test protocol\1iep_ligandH.pdb
REMARK  8 active torsions:
REMARK  status: ('A' for Active; 'I' for Inactive)
REMARK    1  A    between atoms: _5  and  _11
REMARK    2  A    between atoms: _19  and  _21
REMARK    3  A    between atoms: _22  and  _66
REMARK    4  A    between atoms: _27  and  _30
REMARK    5  A    between atoms: _32  and  _33
REMARK    6  A    between atoms: _38  and  _43
REMARK    7  A    between atoms: _43  and  _46
REMARK    8  A    between atoms: _53  and  _55
REMARK                            x       y       z     vdW  Elec       q    Type
REMARK                         _______ _______ _______ _____ _____    ______ ____
ROOT
ATOM     10  C   UNL     1      12.352  22.673   8.269  0.00  0.00    +0.038 A 
ATOM     11  C   UNL     1      13.571  22.987   7.616  0.00  0.00    +0.047 A 
ATOM     12  C   UNL     1      14.846  22.523   8.140  0.00  0.00    +0.035 A 
ATOM     32  C   UNL     1      14.842  21.738   9.329  0.00  0.00    +0.024 A 
ATOM     33  C   UNL     1      13.612  21.410  10.007  0.00  0.00    +0.007 A 
ATOM     34  C   UNL     1      12.352  21.868   9.496  0.00  0.00    -0.029 A 
ATOM     35  C   UNL     1      11.065  21.492  10.267  0.00  0.00    +0.045 C 
ENDROOT
BRANCH  10   9
ATOM      4  C   UNL     1       8.996  26.061   7.718  0.00  0.00    +0.077 A 
ATOM      5  C   UNL     1       9.668  26.956   8.615  0.00  0.00    +0.048 A 
ATOM      6  C   UNL     1      10.871  26.503   9.203  0.00  0.00    +0.116 A 
ATOM      7  N   UNL     1      11.356  25.248   8.908  0.00  0.00    -0.223 NA
ATOM      8  C   UNL     1      10.682  24.409   8.040  0.00  0.00    +0.220 A 
ATOM      9  N   UNL     1      11.156  23.145   7.723  0.00  0.00    -0.283 N 
ATOM     36  H   UNL     1      10.626  22.554   7.083  0.00  0.00    +0.155 HD
ATOM     37  N   UNL     1       9.531  24.817   7.466  0.00  0.00    -0.214 NA
BRANCH   4   3
ATOM      1  C   UNL     1       5.294  27.097   6.996  0.00  0.00    +0.020 A 
ATOM      2  C   UNL     1       6.503  26.783   7.722  0.00  0.00    +0.013 A 
ATOM      3  C   UNL     1       7.717  26.395   7.015  0.00  0.00    +0.019 A 
ATOM     38  C   UNL     1       7.674  26.335   5.562  0.00  0.00    +0.120 A 
ATOM     39  N   UNL     1       6.495  26.641   4.889  0.00  0.00    -0.263 NA
ATOM     40  C   UNL     1       5.320  27.014   5.559  0.00  0.00    +0.111 A 
ENDBRANCH   4   3
ENDBRANCH  10   9
BRANCH  12  13
ATOM     13  N   UNL     1      16.117  22.817   7.524  0.00  0.00    -0.281 N 
ATOM     14  C   UNL     1      16.630  22.304   6.345  0.00  0.00    +0.248 C 
ATOM     30  O   UNL     1      16.163  21.347   5.745  0.00  0.00    -0.270 OA
ATOM     31  H   UNL     1      16.709  23.484   8.019  0.00  0.00    +0.155 HD
BRANCH  14  15
ATOM     15  C   UNL     1      17.848  22.937   5.752  0.00  0.00    +0.037 A 
ATOM     16  C   UNL     1      19.160  22.291   5.841  0.00  0.00    +0.013 A 
ATOM     17  C   UNL     1      20.321  22.931   5.276  0.00  0.00    +0.005 A 
ATOM     18  C   UNL     1      20.175  24.226   4.615  0.00  0.00    -0.033 A 
ATOM     28  C   UNL     1      18.861  24.842   4.536  0.00  0.00    +0.005 A 
ATOM     29  C   UNL     1      17.721  24.218   5.090  0.00  0.00    +0.013 A 
BRANCH  18  19
ATOM     19  C   UNL     1      21.363  24.991   4.003  0.00  0.00    +0.119 C 
BRANCH  19  20
ATOM     20  N   UNL     1      21.764  24.630   2.610  0.00  0.00    -0.302 NA
ATOM     21  C   UNL     1      22.872  23.573   2.588  0.00  0.00    +0.066 C 
ATOM     22  C   UNL     1      23.264  23.190   1.123  0.00  0.00    -0.064 C 
ATOM     23  N   UNL     1      23.700  24.448   0.370  0.00  0.00    +0.379 N 
ATOM     24  C   UNL     1      24.124  24.084  -0.990  0.00  0.00    -0.096 C 
ATOM     25  H   UNL     1      24.586  24.869   0.900  0.00  0.00    -0.082 HD
ATOM     26  C   UNL     1      22.605  25.506   0.390  0.00  0.00    -0.064 C 
ATOM     27  C   UNL     1      22.203  25.857   1.850  0.00  0.00    +0.066 C 
ENDBRANCH  19  20
ENDBRANCH  18  19
ENDBRANCH  14  15
ENDBRANCH  12  13
TORSDOF 6
ENDMDL
MODEL 4
REMARK VINA RESULT:      -7.8      9.597     14.112
REMARK  Name = C:\Users\Docking\Desktop\test protocol\1iep_ligandH.pdb
REMARK  8 active torsions:
REMARK  status: ('A' for Active; 'I' for Inactive)
REMARK    1  A    between atoms: _5  and  _11
REMARK    2  A    between atoms: _19  and  _21
REMARK    3  A    between atoms: _22  and  _66
REMARK    4  A    between atoms: _27  and  _30
REMARK    5  A    between atoms: _32  and  _33
REMARK    6  A    between atoms: _38  and  _43
REMARK    7  A    between atoms: _43  and  _46
REMARK    8  A    between atoms: _53  and  _55
REMARK                            x       y       z     vdW  Elec       q    Type
REMARK                         _______ _______ _______ _____ _____    ______ ____
ROOT
ATOM     10  C   UNL     1       8.909  25.424   8.313  0.00  0.00    +0.038 A 
ATOM     11  C   UNL     1       7.538  25.741   8.130  0.00  0.00    +0.047 A 
ATOM     12  C   UNL     1       7.092  27.122   8.029  0.00  0.00    +0.035 A 
ATOM     32  C   UNL     1       8.070  28.156   8.116  0.00  0.00    +0.024 A 
ATOM     33  C   UNL     1       9.467  27.851   8.304  0.00  0.00    +0.007 A 
ATOM     34  C   UNL     1       9.912  26.491   8.406  0.00  0.00    -0.029 A 
ATOM     35  C   UNL     1      11.421  26.224   8.613  0.00  0.00    +0.045 C 
ENDROOT
BRANCH  10   9
ATOM      4  C   UNL     1      10.486  21.626  10.787  0.00  0.00    +0.077 A 
ATOM      5  C   UNL     1      10.603  22.388  11.997  0.00  0.00    +0.048 A 
ATOM      6  C   UNL     1      10.255  23.756  11.938  0.00  0.00    +0.116 A 
ATOM      7  N   UNL     1       9.822  24.310  10.753  0.00  0.00    -0.223 NA
ATOM      8  C   UNL     1       9.722  23.547   9.604  0.00  0.00    +0.220 A 
ATOM      9  N   UNL     1       9.281  24.081   8.403  0.00  0.00    -0.283 N 
ATOM     36  H   UNL     1       9.228  23.487   7.576  0.00  0.00    +0.155 HD
ATOM     37  N   UNL     1      10.050  22.239   9.634  0.00  0.00    -0.214 NA
BRANCH   4   3
ATOM      1  C   UNL     1      10.554  17.765  11.413  0.00  0.00    +0.020 A 
ATOM      2  C   UNL     1      10.203  19.160  11.548  0.00  0.00    +0.013 A 
ATOM      3  C   UNL     1      10.814  20.168  10.690  0.00  0.00    +0.019 A 
ATOM     38  C   UNL     1      11.783  19.728   9.698  0.00  0.00    +0.120 A 
ATOM     39  N   UNL     1      12.102  18.378   9.592  0.00  0.00    -0.263 NA
ATOM     40  C   UNL     1      11.522  17.399  10.413  0.00  0.00    +0.111 A 
ENDBRANCH   4   3
ENDBRANCH  10   9
BRANCH  12  13
ATOM     13  N   UNL     1       5.714  27.505   7.851  0.00  0.00    -0.281 N 
ATOM     14  C   UNL     1       4.832  27.082   6.870  0.00  0.00    +0.248 C 
ATOM     30  O   UNL     1       5.160  26.469   5.864  0.00  0.00    -0.270 OA
ATOM     31  H   UNL     1       5.343  28.169   8.531  0.00  0.00    +0.155 HD
BRANCH  14  15
ATOM     15  C   UNL     1       3.379  27.397   7.020  0.00  0.00    +0.037 A 
ATOM     16  C   UNL     1       2.369  26.336   7.040  0.00  0.00    +0.013 A 
ATOM     17  C   UNL     1       0.973  26.668   7.169  0.00  0.00    +0.005 A 
ATOM     18  C   UNL     1       0.578  28.070   7.281  0.00  0.00    -0.033 A 
ATOM     28  C   UNL     1       1.601  29.103   7.263  0.00  0.00    +0.005 A 
ATOM     29  C   UNL     1       2.970  28.781   7.136  0.00  0.00    +0.013 A 
BRANCH  18  19
ATOM     19  C   UNL     1      -0.891  28.519   7.400  0.00  0.00    +0.119 C 
BRANCH  19  20
ATOM     20  N   UNL     1      -1.589  28.236   8.690  0.00  0.00    -0.302 NA
ATOM     21  C   UNL     1      -0.725  28.597   9.902  0.00  0.00    +0.066 C 
ATOM     22  C   UNL     1      -1.479  28.316  11.242  0.00  0.00    -0.064 C 
ATOM     23  N   UNL     1      -1.895  26.845  11.292  0.00  0.00    +0.379 N 
ATOM     24  C   UNL     1      -2.553  26.564  12.576  0.00  0.00    -0.096 C 
ATOM     25  H   UNL     1      -0.966  26.230  11.246  0.00  0.00    -0.082 HD
ATOM     26  C   UNL     1      -2.752  26.478  10.089  0.00  0.00    -0.064 C 
ATOM     27  C   UNL     1      -2.005  26.788   8.762  0.00  0.00    +0.066 C 
ENDBRANCH  19  20
ENDBRANCH  18  19
ENDBRANCH  14  15
ENDBRANCH  12  13
TORSDOF 6
ENDMDL
MODEL 5
REMARK VINA RESULT:      -7.8      2.134     11.844
REMARK  Name = C:\Users\Docking\Desktop\test protocol\1iep_ligandH.pdb
REMARK  8 active torsions:
REMARK  status: ('A' for Active; 'I' for Inactive)
REMARK    1  A    between atoms: _5  and  _11
REMARK    2  A    between atoms: _19  and  _21
REMARK    3  A    between atoms: _22  and  _66
REMARK    4  A    between atoms: _27  and  _30
REMARK    5  A    between atoms: _32  and  _33
REMARK    6  A    between atoms: _38  and  _43
REMARK    7  A    between atoms: _43  and  _46
REMARK    8  A    between atoms: _53  and  _55
REMARK                            x       y       z     vdW  Elec       q    Type
REMARK                         _______ _______ _______ _____ _____    ______ ____
ROOT
ATOM     10  C   UNL     1      12.139  22.615   8.377  0.00  0.00    +0.038 A 
ATOM     11  C   UNL     1      13.358  22.915   7.716  0.00  0.00    +0.047 A 
ATOM     12  C   UNL     1      14.632  22.445   8.236  0.00  0.00    +0.035 A 
ATOM     32  C   UNL     1      14.628  21.668   9.432  0.00  0.00    +0.024 A 
ATOM     33  C   UNL     1      13.399  21.354  10.117  0.00  0.00    +0.007 A 
ATOM     34  C   UNL     1      12.139  21.818   9.609  0.00  0.00    -0.029 A 
ATOM     35  C   UNL     1      10.854  21.456  10.389  0.00  0.00    +0.045 C 
ENDROOT
BRANCH  10   9
ATOM      4  C   UNL     1       8.860  26.060   7.732  0.00  0.00    +0.077 A 
ATOM      5  C   UNL     1       9.574  26.978   8.572  0.00  0.00    +0.048 A 
ATOM      6  C   UNL     1      10.777  26.523   9.157  0.00  0.00    +0.116 A 
ATOM      7  N   UNL     1      11.223  25.242   8.912  0.00  0.00    -0.223 NA
ATOM      8  C   UNL     1      10.510  24.381   8.098  0.00  0.00    +0.220 A 
ATOM      9  N   UNL     1      10.945  23.092   7.833  0.00  0.00    -0.283 N 
ATOM     36  H   UNL     1      10.386  22.485   7.233  0.00  0.00    +0.155 HD
ATOM     37  N   UNL     1       9.358  24.792   7.530  0.00  0.00    -0.214 NA
BRANCH   4   3
ATOM      1  C   UNL     1       5.137  27.041   7.044  0.00  0.00    +0.020 A 
ATOM      2  C   UNL     1       6.351  26.725   7.759  0.00  0.00    +0.013 A 
ATOM      3  C   UNL     1       7.575  26.395   7.041  0.00  0.00    +0.019 A 
ATOM     38  C   UNL     1       7.537  26.395   5.586  0.00  0.00    +0.120 A 
ATOM     39  N   UNL     1       6.353  26.702   4.924  0.00  0.00    -0.263 NA
ATOM     40  C   UNL     1       5.168  27.020   5.605  0.00  0.00    +0.111 A 
ENDBRANCH   4   3
ENDBRANCH  10   9
BRANCH  12  13
ATOM     13  N   UNL     1      15.902  22.726   7.613  0.00  0.00    -0.281 N 
ATOM     14  C   UNL     1      16.561  21.980   6.650  0.00  0.00    +0.248 C 
ATOM     30  O   UNL     1      16.257  20.840   6.330  0.00  0.00    -0.270 OA
ATOM     31  H   UNL     1      16.372  23.577   7.920  0.00  0.00    +0.155 HD
BRANCH  14  15
ATOM     15  C   UNL     1      17.736  22.582   5.950  0.00  0.00    +0.037 A 
ATOM     16  C   UNL     1      19.103  22.146   6.248  0.00  0.00    +0.013 A 
ATOM     17  C   UNL     1      20.220  22.755   5.571  0.00  0.00    +0.005 A 
ATOM     18  C   UNL     1      19.974  23.807   4.587  0.00  0.00    -0.033 A 
ATOM     28  C   UNL     1      18.608  24.216   4.306  0.00  0.00    +0.005 A 
ATOM     29  C   UNL     1      17.511  23.622   4.969  0.00  0.00    +0.013 A 
BRANCH  18  19
ATOM     19  C   UNL     1      21.107  24.527   3.832  0.00  0.00    +0.119 C 
BRANCH  19  20
ATOM     20  N   UNL     1      20.713  25.582   2.852  0.00  0.00    -0.302 NA
ATOM     21  C   UNL     1      21.775  25.785   1.767  0.00  0.00    +0.066 C 
ATOM     22  C   UNL     1      21.336  26.877   0.738  0.00  0.00    -0.064 C 
ATOM     23  N   UNL     1      21.058  28.188   1.476  0.00  0.00    +0.379 N 
ATOM     24  C   UNL     1      20.701  29.232   0.505  0.00  0.00    -0.096 C 
ATOM     25  H   UNL     1      22.004  28.500   1.977  0.00  0.00    -0.082 HD
ATOM     26  C   UNL     1      20.005  27.994   2.558  0.00  0.00    -0.064 C 
ATOM     27  C   UNL     1      20.438  26.887   3.559  0.00  0.00    +0.066 C 
ENDBRANCH  19  20
ENDBRANCH  18  19
ENDBRANCH  14  15
ENDBRANCH  12  13
TORSDOF 6
ENDMDL
