MODEL 1
REMARK VINA RESULT:      -7.5      0.000      0.000
REMARK  Name = C:\Users\Docking\Desktop\test protocol\1iep_ligandH.pdb
REMARK  8 active torsions:
REMARK  status: ('A' for Active; 'I' for Inactive)
REMARK    1  A    between atoms: _5  and  _11
REMARK    2  A    between atoms: _19  and  _21
REMARK    3  A    between atoms: _22  and  _66
REMARK    4  A    between atoms: _27  and  _30
REMARK    5  A    between atoms: _32  and  _33
REMARK    6  A    between atoms: _38  and  _43
REMARK    7  A    between atoms: _43  and  _46
REMARK    8  A    between atoms: _53  and  _55
REMARK                            x       y       z     vdW  Elec       q    Type
REMARK                         _______ _______ _______ _____ _____    ______ ____
ROOT
ATOM     10  C   UNL     1      -7.594 -16.729  17.991  0.00  0.00    +0.038 A 
ATOM     11  C   UNL     1      -8.790 -17.329  18.460  0.00  0.00    +0.047 A 
ATOM     12  C   UNL     1     -10.039 -17.190  17.728  0.00  0.00    +0.035 A 
ATOM     32  C   UNL     1     -10.033 -16.434  16.519  0.00  0.00    +0.024 A 
ATOM     33  C   UNL     1      -8.827 -15.817  16.028  0.00  0.00    +0.007 A 
ATOM     34  C   UNL     1      -7.592 -15.949  16.747  0.00  0.00    -0.029 A 
ATOM     35  C   UNL     1      -6.330 -15.259  16.178  0.00  0.00    +0.045 C 
ENDROOT
BRANCH  10   9
ATOM      4  C   UNL     1      -4.406 -15.242  21.256  0.00  0.00    +0.077 A 
ATOM      5  C   UNL     1      -5.119 -14.018  21.482  0.00  0.00    +0.048 A 
ATOM      6  C   UNL     1      -6.298 -13.806  20.732  0.00  0.00    +0.116 A 
ATOM      7  N   UNL     1      -6.723 -14.755  19.827  0.00  0.00    -0.223 NA
ATOM      8  C   UNL     1      -6.010 -15.924  19.632  0.00  0.00    +0.220 A 
ATOM      9  N   UNL     1      -6.423 -16.895  18.733  0.00  0.00    -0.283 N 
ATOM     36  H   UNL     1      -5.865 -17.741  18.613  0.00  0.00    +0.155 HD
ATOM     37  N   UNL     1      -4.880 -16.149  20.335  0.00  0.00    -0.214 NA
BRANCH   4   3
ATOM      1  C   UNL     1      -0.710 -15.268  22.537  0.00  0.00    +0.020 A 
ATOM      2  C   UNL     1      -1.900 -14.870  21.821  0.00  0.00    +0.013 A 
ATOM      3  C   UNL     1      -3.145 -15.611  21.973  0.00  0.00    +0.019 A 
ATOM     38  C   UNL     1      -3.153 -16.760  22.867  0.00  0.00    +0.120 A 
ATOM     39  N   UNL     1      -1.992 -17.121  23.542  0.00  0.00    -0.263 NA
ATOM     40  C   UNL     1      -0.787 -16.416  23.402  0.00  0.00    +0.111 A 
ENDBRANCH   4   3
ENDBRANCH  10   9
BRANCH  12  13
ATOM     13  N   UNL     1     -11.287 -17.770  18.160  0.00  0.00    -0.281 N 
ATOM     14  C   UNL     1     -12.409 -17.115  18.640  0.00  0.00    +0.248 C 
ATOM     30  O   UNL     1     -12.434 -15.940  18.974  0.00  0.00    -0.270 OA
ATOM     31  H   UNL     1     -11.350 -18.786  18.104  0.00  0.00    +0.155 HD
BRANCH  14  15
ATOM     15  C   UNL     1     -13.685 -17.880  18.784  0.00  0.00    +0.037 A 
ATOM     16  C   UNL     1     -14.052 -18.931  17.832  0.00  0.00    +0.013 A 
ATOM     17  C   UNL     1     -15.297 -19.642  17.984  0.00  0.00    +0.005 A 
ATOM     18  C   UNL     1     -16.184 -19.304  19.095  0.00  0.00    -0.033 A 
ATOM     28  C   UNL     1     -15.792 -18.261  20.028  0.00  0.00    +0.005 A 
ATOM     29  C   UNL     1     -14.573 -17.561  19.881  0.00  0.00    +0.013 A 
BRANCH  18  19
ATOM     19  C   UNL     1     -17.541 -19.996  19.322  0.00  0.00    +0.119 C 
BRANCH  19  20
ATOM     20  N   UNL     1     -18.412 -20.202  18.127  0.00  0.00    -0.302 NA
ATOM     21  C   UNL     1     -19.616 -19.255  18.124  0.00  0.00    +0.066 C 
ATOM     22  C   UNL     1     -20.504 -19.468  16.856  0.00  0.00    -0.064 C 
ATOM     23  N   UNL     1     -20.962 -20.927  16.796  0.00  0.00    +0.379 N 
ATOM     24  C   UNL     1     -21.845 -21.117  15.636  0.00  0.00    -0.096 C 
ATOM     25  H   UNL     1     -21.561 -21.131  17.714  0.00  0.00    -0.082 HD
ATOM     26  C   UNL     1     -19.771 -21.875  16.802  0.00  0.00    -0.064 C 
ATOM     27  C   UNL     1     -18.879 -21.635  18.051  0.00  0.00    +0.066 C 
ENDBRANCH  19  20
ENDBRANCH  18  19
ENDBRANCH  14  15
ENDBRANCH  12  13
TORSDOF 6
ENDMDL
MODEL 2
REMARK VINA RESULT:      -7.5     23.541     26.183
REMARK  Name = C:\Users\Docking\Desktop\test protocol\1iep_ligandH.pdb
REMARK  8 active torsions:
REMARK  status: ('A' for Active; 'I' for Inactive)
REMARK    1  A    between atoms: _5  and  _11
REMARK    2  A    between atoms: _19  and  _21
REMARK    3  A    between atoms: _22  and  _66
REMARK    4  A    between atoms: _27  and  _30
REMARK    5  A    between atoms: _32  and  _33
REMARK    6  A    between atoms: _38  and  _43
REMARK    7  A    between atoms: _43  and  _46
REMARK    8  A    between atoms: _53  and  _55
REMARK                            x       y       z     vdW  Elec       q    Type
REMARK                         _______ _______ _______ _____ _____    ______ ____
ROOT
ATOM     10  C   UNL     1      -0.948 -37.648  10.794  0.00  0.00    +0.038 A 
ATOM     11  C   UNL     1      -1.269 -37.607  12.175  0.00  0.00    +0.047 A 
ATOM     12  C   UNL     1      -0.238 -37.412  13.182  0.00  0.00    +0.035 A 
ATOM     32  C   UNL     1       1.111 -37.260  12.747  0.00  0.00    +0.024 A 
ATOM     33  C   UNL     1       1.455 -37.300  11.347  0.00  0.00    +0.007 A 
ATOM     34  C   UNL     1       0.443 -37.495  10.350  0.00  0.00    -0.029 A 
ATOM     35  C   UNL     1       0.871 -37.536   8.864  0.00  0.00    +0.045 C 
ENDROOT
BRANCH  10   9
ATOM      4  C   UNL     1      -3.968 -40.456   8.338  0.00  0.00    +0.077 A 
ATOM      5  C   UNL     1      -3.429 -41.649   8.925  0.00  0.00    +0.048 A 
ATOM      6  C   UNL     1      -2.372 -41.497   9.850  0.00  0.00    +0.116 A 
ATOM      7  N   UNL     1      -1.896 -40.241  10.156  0.00  0.00    -0.223 NA
ATOM      8  C   UNL     1      -2.436 -39.111   9.570  0.00  0.00    +0.220 A 
ATOM      9  N   UNL     1      -1.978 -37.837   9.870  0.00  0.00    -0.283 N 
ATOM     36  H   UNL     1      -2.398 -37.030   9.410  0.00  0.00    +0.155 HD
ATOM     37  N   UNL     1      -3.446 -39.230   8.683  0.00  0.00    -0.214 NA
BRANCH   4   3
ATOM      1  C   UNL     1      -7.442 -39.885   6.635  0.00  0.00    +0.020 A 
ATOM      2  C   UNL     1      -6.392 -39.863   7.627  0.00  0.00    +0.013 A 
ATOM      3  C   UNL     1      -5.090 -40.453   7.347  0.00  0.00    +0.019 A 
ATOM     38  C   UNL     1      -4.880 -41.063   6.042  0.00  0.00    +0.120 A 
ATOM     39  N   UNL     1      -5.910 -41.071   5.107  0.00  0.00    -0.263 NA
ATOM     40  C   UNL     1      -7.168 -40.508   5.366  0.00  0.00    +0.111 A 
ENDBRANCH   4   3
ENDBRANCH  10   9
BRANCH  12  13
ATOM     13  N   UNL     1      -0.503 -37.370  14.598  0.00  0.00    -0.281 N 
ATOM     14  C   UNL     1      -0.192 -38.325  15.552  0.00  0.00    +0.248 C 
ATOM     30  O   UNL     1       0.173 -39.463  15.297  0.00  0.00    -0.270 OA
ATOM     31  H   UNL     1      -0.978 -36.534  14.940  0.00  0.00    +0.155 HD
BRANCH  14  15
ATOM     15  C   UNL     1      -0.319 -37.970  16.998  0.00  0.00    +0.037 A 
ATOM     16  C   UNL     1       0.846 -37.969  17.886  0.00  0.00    +0.013 A 
ATOM     17  C   UNL     1       0.693 -37.639  19.281  0.00  0.00    +0.005 A 
ATOM     18  C   UNL     1      -0.632 -37.305  19.796  0.00  0.00    -0.033 A 
ATOM     28  C   UNL     1      -1.771 -37.309  18.893  0.00  0.00    +0.005 A 
ATOM     29  C   UNL     1      -1.625 -37.633  17.525  0.00  0.00    +0.013 A 
BRANCH  18  19
ATOM     19  C   UNL     1      -0.892 -36.961  21.275  0.00  0.00    +0.119 C 
BRANCH  19  20
ATOM     20  N   UNL     1      -1.086 -38.102  22.219  0.00  0.00    -0.302 NA
ATOM     21  C   UNL     1      -2.469 -38.742  22.070  0.00  0.00    +0.066 C 
ATOM     22  C   UNL     1      -2.646 -39.948  23.049  0.00  0.00    -0.064 C 
ATOM     23  N   UNL     1      -2.420 -39.473  24.486  0.00  0.00    +0.379 N 
ATOM     24  C   UNL     1      -2.643 -40.591  25.413  0.00  0.00    -0.096 C 
ATOM     25  H   UNL     1      -3.184 -38.692  24.707  0.00  0.00    -0.082 HD
ATOM     26  C   UNL     1      -1.048 -38.833  24.641  0.00  0.00    -0.064 C 
ATOM     27  C   UNL     1      -0.871 -37.654  23.643  0.00  0.00    +0.066 C 
ENDBRANCH  19  20
ENDBRANCH  18  19
ENDBRANCH  14  15
ENDBRANCH  12  13
TORSDOF 6
ENDMDL
MODEL 3
REMARK VINA RESULT:      -7.4      5.838     15.510
REMARK  Name = C:\Users\Docking\Desktop\test protocol\1iep_ligandH.pdb
REMARK  8 active torsions:
REMARK  status: ('A' for Active; 'I' for Inactive)
REMARK    1  A    between atoms: _5  and  _11
REMARK    2  A    between atoms: _19  and  _21
REMARK    3  A    between atoms: _22  and  _66
REMARK    4  A    between atoms: _27  and  _30
REMARK    5  A    between atoms: _32  and  _33
REMARK    6  A    between atoms: _38  and  _43
REMARK    7  A    between atoms: _43  and  _46
REMARK    8  A    between atoms: _53  and  _55
REMARK                            x       y       z     vdW  Elec       q    Type
REMARK                         _______ _______ _______ _____ _____    ______ ____
ROOT
ATOM     10  C   UNL     1     -19.893 -25.758  17.726  0.00  0.00    +0.038 A 
ATOM     11  C   UNL     1     -18.977 -24.699  17.952  0.00  0.00    +0.047 A 
ATOM     12  C   UNL     1     -18.983 -23.507  17.118  0.00  0.00    +0.035 A 
ATOM     32  C   UNL     1     -19.938 -23.427  16.062  0.00  0.00    +0.024 A 
ATOM     33  C   UNL     1     -20.875 -24.494  15.817  0.00  0.00    +0.007 A 
ATOM     34  C   UNL     1     -20.872 -25.673  16.636  0.00  0.00    -0.029 A 
ATOM     35  C   UNL     1     -21.896 -26.789  16.323  0.00  0.00    +0.045 C 
ENDROOT
BRANCH  10   9
ATOM      4  C   UNL     1     -21.673 -28.509  21.233  0.00  0.00    +0.077 A 
ATOM      5  C   UNL     1     -22.783 -27.625  21.444  0.00  0.00    +0.048 A 
ATOM      6  C   UNL     1     -22.855 -26.469  20.634  0.00  0.00    +0.116 A 
ATOM      7  N   UNL     1     -21.884 -26.226  19.686  0.00  0.00    -0.223 NA
ATOM      8  C   UNL     1     -20.826 -27.099  19.510  0.00  0.00    +0.220 A 
ATOM      9  N   UNL     1     -19.843 -26.879  18.557  0.00  0.00    -0.283 N 
ATOM     36  H   UNL     1     -19.074 -27.543  18.463  0.00  0.00    +0.155 HD
ATOM     37  N   UNL     1     -20.734 -28.209  20.272  0.00  0.00    -0.214 NA
BRANCH   4   3
ATOM      1  C   UNL     1     -20.303 -31.136  23.786  0.00  0.00    +0.020 A 
ATOM      2  C   UNL     1     -20.468 -29.893  23.069  0.00  0.00    +0.013 A 
ATOM      3  C   UNL     1     -21.460 -29.772  22.007  0.00  0.00    +0.019 A 
ATOM     38  C   UNL     1     -22.275 -30.937  21.695  0.00  0.00    +0.120 A 
ATOM     39  N   UNL     1     -22.092 -32.121  22.402  0.00  0.00    -0.263 NA
ATOM     40  C   UNL     1     -21.140 -32.250  23.425  0.00  0.00    +0.111 A 
ENDBRANCH   4   3
ENDBRANCH  10   9
BRANCH  12  13
ATOM     13  N   UNL     1     -18.072 -22.404  17.295  0.00  0.00    -0.281 N 
ATOM     14  C   UNL     1     -18.290 -21.222  17.985  0.00  0.00    +0.248 C 
ATOM     30  O   UNL     1     -19.383 -20.842  18.377  0.00  0.00    -0.270 OA
ATOM     31  H   UNL     1     -17.156 -22.506  16.859  0.00  0.00    +0.155 HD
BRANCH  14  15
ATOM     15  C   UNL     1     -17.127 -20.327  18.268  0.00  0.00    +0.037 A 
ATOM     16  C   UNL     1     -16.071 -20.115  17.274  0.00  0.00    +0.013 A 
ATOM     17  C   UNL     1     -14.952 -19.260  17.579  0.00  0.00    +0.005 A 
ATOM     18  C   UNL     1     -14.884 -18.608  18.885  0.00  0.00    -0.033 A 
ATOM     28  C   UNL     1     -15.948 -18.831  19.850  0.00  0.00    +0.005 A 
ATOM     29  C   UNL     1     -17.046 -19.670  19.555  0.00  0.00    +0.013 A 
BRANCH  18  19
ATOM     19  C   UNL     1     -13.716 -17.695  19.304  0.00  0.00    +0.119 C 
BRANCH  19  20
ATOM     20  N   UNL     1     -12.647 -17.444  18.292  0.00  0.00    -0.302 NA
ATOM     21  C   UNL     1     -11.251 -17.744  18.845  0.00  0.00    +0.066 C 
ATOM     22  C   UNL     1     -10.147 -17.497  17.766  0.00  0.00    -0.064 C 
ATOM     23  N   UNL     1     -10.235 -16.053  17.270  0.00  0.00    +0.379 N 
ATOM     24  C   UNL     1      -9.161 -15.801  16.298  0.00  0.00    -0.096 C 
ATOM     25  H   UNL     1     -10.062 -15.384  18.146  0.00  0.00    -0.082 HD
ATOM     26  C   UNL     1     -11.621 -15.746  16.721  0.00  0.00    -0.064 C 
ATOM     27  C   UNL     1     -12.713 -16.022  17.792  0.00  0.00    +0.066 C 
ENDBRANCH  19  20
ENDBRANCH  18  19
ENDBRANCH  14  15
ENDBRANCH  12  13
TORSDOF 6
ENDMDL
MODEL 4
REMARK VINA RESULT:      -7.3      5.322      9.194
REMARK  Name = C:\Users\Docking\Desktop\test protocol\1iep_ligandH.pdb
REMARK  8 active torsions:
REMARK  status: ('A' for Active; 'I' for Inactive)
REMARK    1  A    between atoms: _5  and  _11
REMARK    2  A    between atoms: _19  and  _21
REMARK    3  A    between atoms: _22  and  _66
REMARK    4  A    between atoms: _27  and  _30
REMARK    5  A    between atoms: _32  and  _33
REMARK    6  A    between atoms: _38  and  _43
REMARK    7  A    between atoms: _43  and  _46
REMARK    8  A    between atoms: _53  and  _55
REMARK                            x       y       z     vdW  Elec       q    Type
REMARK                         _______ _______ _______ _____ _____    ______ ____
ROOT
ATOM     10  C   UNL     1     -16.367 -18.085  18.327  0.00  0.00    +0.038 A 
ATOM     11  C   UNL     1     -17.046 -19.119  17.633  0.00  0.00    +0.047 A 
ATOM     12  C   UNL     1     -18.076 -19.913  18.284  0.00  0.00    +0.035 A 
ATOM     32  C   UNL     1     -18.391 -19.627  19.644  0.00  0.00    +0.024 A 
ATOM     33  C   UNL     1     -17.710 -18.581  20.366  0.00  0.00    +0.007 A 
ATOM     34  C   UNL     1     -16.691 -17.795  19.729  0.00  0.00    -0.029 A 
ATOM     35  C   UNL     1     -15.990 -16.691  20.554  0.00  0.00    +0.045 C 
ENDROOT
BRANCH  10   9
ATOM      4  C   UNL     1     -11.785 -17.066  17.325  0.00  0.00    +0.077 A 
ATOM      5  C   UNL     1     -11.302 -18.057  18.243  0.00  0.00    +0.048 A 
ATOM      6  C   UNL     1     -12.266 -18.803  18.959  0.00  0.00    +0.116 A 
ATOM      7  N   UNL     1     -13.609 -18.567  18.763  0.00  0.00    -0.223 NA
ATOM      8  C   UNL     1     -14.041 -17.602  17.872  0.00  0.00    +0.220 A 
ATOM      9  N   UNL     1     -15.387 -17.354  17.653  0.00  0.00    -0.283 N 
ATOM     36  H   UNL     1     -15.665 -16.628  16.992  0.00  0.00    +0.155 HD
ATOM     37  N   UNL     1     -13.141 -16.876  17.177  0.00  0.00    -0.214 NA
BRANCH   4   3
ATOM      1  C   UNL     1      -8.629 -15.285  15.853  0.00  0.00    +0.020 A 
ATOM      2  C   UNL     1      -9.448 -16.138  16.684  0.00  0.00    +0.013 A 
ATOM      3  C   UNL     1     -10.891 -16.200  16.494  0.00  0.00    +0.019 A 
ATOM     38  C   UNL     1     -11.480 -15.381  15.445  0.00  0.00    +0.120 A 
ATOM     39  N   UNL     1     -10.667 -14.568  14.661  0.00  0.00    -0.263 NA
ATOM     40  C   UNL     1      -9.277 -14.499  14.836  0.00  0.00    +0.111 A 
ENDBRANCH   4   3
ENDBRANCH  10   9
BRANCH  12  13
ATOM     13  N   UNL     1     -18.793 -20.980  17.632  0.00  0.00    -0.281 N 
ATOM     14  C   UNL     1     -18.327 -22.242  17.301  0.00  0.00    +0.248 C 
ATOM     30  O   UNL     1     -17.151 -22.573  17.326  0.00  0.00    -0.270 OA
ATOM     31  H   UNL     1     -19.762 -20.781  17.383  0.00  0.00    +0.155 HD
BRANCH  14  15
ATOM     15  C   UNL     1     -19.308 -23.284  16.868  0.00  0.00    +0.037 A 
ATOM     16  C   UNL     1     -20.180 -23.071  15.710  0.00  0.00    +0.013 A 
ATOM     17  C   UNL     1     -21.129 -24.085  15.324  0.00  0.00    +0.005 A 
ATOM     18  C   UNL     1     -21.210 -25.322  16.096  0.00  0.00    -0.033 A 
ATOM     28  C   UNL     1     -20.329 -25.509  17.237  0.00  0.00    +0.005 A 
ATOM     29  C   UNL     1     -19.398 -24.517  17.619  0.00  0.00    +0.013 A 
BRANCH  18  19
ATOM     19  C   UNL     1     -22.207 -26.449  15.769  0.00  0.00    +0.119 C 
BRANCH  19  20
ATOM     20  N   UNL     1     -22.087 -27.101  14.431  0.00  0.00    -0.302 NA
ATOM     21  C   UNL     1     -23.313 -27.954  14.095  0.00  0.00    +0.066 C 
ATOM     22  C   UNL     1     -23.181 -28.611  12.682  0.00  0.00    -0.064 C 
ATOM     23  N   UNL     1     -21.905 -29.454  12.633  0.00  0.00    +0.379 N 
ATOM     24  C   UNL     1     -21.807 -30.119  11.325  0.00  0.00    -0.096 C 
ATOM     25  H   UNL     1     -21.994 -30.247  13.411  0.00  0.00    -0.082 HD
ATOM     26  C   UNL     1     -20.681 -28.614  12.968  0.00  0.00    -0.064 C 
ATOM     27  C   UNL     1     -20.836 -27.942  14.361  0.00  0.00    +0.066 C 
ENDBRANCH  19  20
ENDBRANCH  18  19
ENDBRANCH  14  15
ENDBRANCH  12  13
TORSDOF 6
ENDMDL
MODEL 5
REMARK VINA RESULT:      -7.2     22.535     27.195
REMARK  Name = C:\Users\Docking\Desktop\test protocol\1iep_ligandH.pdb
REMARK  8 active torsions:
REMARK  status: ('A' for Active; 'I' for Inactive)
REMARK    1  A    between atoms: _5  and  _11
REMARK    2  A    between atoms: _19  and  _21
REMARK    3  A    between atoms: _22  and  _66
REMARK    4  A    between atoms: _27  and  _30
REMARK    5  A    between atoms: _32  and  _33
REMARK    6  A    between atoms: _38  and  _43
REMARK    7  A    between atoms: _43  and  _46
REMARK    8  A    between atoms: _53  and  _55
REMARK                            x       y       z     vdW  Elec       q    Type
REMARK                         _______ _______ _______ _____ _____    ______ ____
ROOT
ATOM     10  C   UNL     1     -10.474 -40.085   7.195  0.00  0.00    +0.038 A 
ATOM     11  C   UNL     1      -9.218 -39.827   7.801  0.00  0.00    +0.047 A 
ATOM     12  C   UNL     1      -8.043 -39.524   6.998  0.00  0.00    +0.035 A 
ATOM     32  C   UNL     1      -8.185 -39.489   5.580  0.00  0.00    +0.024 A 
ATOM     33  C   UNL     1      -9.454 -39.750   4.947  0.00  0.00    +0.007 A 
ATOM     34  C   UNL     1     -10.616 -40.051   5.734  0.00  0.00    -0.029 A 
ATOM     35  C   UNL     1     -11.950 -40.329   5.003  0.00  0.00    +0.045 C 
ENDROOT
BRANCH  10   9
ATOM      4  C   UNL     1     -14.238 -38.737   9.852  0.00  0.00    +0.077 A 
ATOM      5  C   UNL     1     -13.986 -37.346   9.609  0.00  0.00    +0.048 A 
ATOM      6  C   UNL     1     -12.874 -37.019   8.801  0.00  0.00    +0.116 A 
ATOM      7  N   UNL     1     -12.080 -38.017   8.280  0.00  0.00    -0.223 NA
ATOM      8  C   UNL     1     -12.349 -39.349   8.535  0.00  0.00    +0.220 A 
ATOM      9  N   UNL     1     -11.569 -40.370   8.014  0.00  0.00    -0.283 N 
ATOM     36  H   UNL     1     -11.796 -41.340   8.232  0.00  0.00    +0.155 HD
ATOM     37  N   UNL     1     -13.405 -39.687   9.305  0.00  0.00    -0.214 NA
BRANCH   4   3
ATOM      1  C   UNL     1     -17.335 -38.899  12.235  0.00  0.00    +0.020 A 
ATOM      2  C   UNL     1     -16.249 -38.361  11.449  0.00  0.00    +0.013 A 
ATOM      3  C   UNL     1     -15.376 -39.241  10.683  0.00  0.00    +0.019 A 
ATOM     38  C   UNL     1     -15.632 -40.673  10.733  0.00  0.00    +0.120 A 
ATOM     39  N   UNL     1     -16.685 -41.163  11.500  0.00  0.00    -0.263 NA
ATOM     40  C   UNL     1     -17.530 -40.325  12.243  0.00  0.00    +0.111 A 
ENDBRANCH   4   3
ENDBRANCH  10   9
BRANCH  12  13
ATOM     13  N   UNL     1      -6.740 -39.262   7.556  0.00  0.00    -0.281 N 
ATOM     14  C   UNL     1      -5.581 -40.005   7.399  0.00  0.00    +0.248 C 
ATOM     30  O   UNL     1      -5.541 -41.131   6.926  0.00  0.00    -0.270 OA
ATOM     31  H   UNL     1      -6.662 -38.428   8.138  0.00  0.00    +0.155 HD
BRANCH  14  15
ATOM     15  C   UNL     1      -4.281 -39.418   7.846  0.00  0.00    +0.037 A 
ATOM     16  C   UNL     1      -3.578 -39.937   9.022  0.00  0.00    +0.013 A 
ATOM     17  C   UNL     1      -2.334 -39.342   9.442  0.00  0.00    +0.005 A 
ATOM     18  C   UNL     1      -1.785 -38.220   8.683  0.00  0.00    -0.033 A 
ATOM     28  C   UNL     1      -2.501 -37.729   7.517  0.00  0.00    +0.005 A 
ATOM     29  C   UNL     1      -3.721 -38.309   7.104  0.00  0.00    +0.013 A 
BRANCH  18  19
ATOM     19  C   UNL     1      -0.474 -37.510   9.070  0.00  0.00    +0.119 C 
BRANCH  19  20
ATOM     20  N   UNL     1       0.052 -37.749  10.447  0.00  0.00    -0.302 NA
ATOM     21  C   UNL     1      -0.785 -37.037  11.514  0.00  0.00    +0.066 C 
ATOM     22  C   UNL     1      -0.234 -37.317  12.950  0.00  0.00    -0.064 C 
ATOM     23  N   UNL     1       1.230 -36.877  13.026  0.00  0.00    +0.379 N 
ATOM     24  C   UNL     1       1.734 -37.085  14.392  0.00  0.00    -0.096 C 
ATOM     25  H   UNL     1       1.265 -35.783  12.815  0.00  0.00    -0.082 HD
ATOM     26  C   UNL     1       2.068 -37.579  11.967  0.00  0.00    -0.064 C 
ATOM     27  C   UNL     1       1.495 -37.318  10.546  0.00  0.00    +0.066 C 
ENDBRANCH  19  20
ENDBRANCH  18  19
ENDBRANCH  14  15
ENDBRANCH  12  13
TORSDOF 6
ENDMDL
