MODEL 1
REMARK VINA RESULT:      -7.9      0.000      0.000
REMARK  Name = C:\Users\Docking\Desktop\test protocol\1iep_ligandH.pdb
REMARK  8 active torsions:
REMARK  status: ('A' for Active; 'I' for Inactive)
REMARK    1  A    between atoms: _5  and  _11
REMARK    2  A    between atoms: _19  and  _21
REMARK    3  A    between atoms: _22  and  _66
REMARK    4  A    between atoms: _27  and  _30
REMARK    5  A    between atoms: _32  and  _33
REMARK    6  A    between atoms: _38  and  _43
REMARK    7  A    between atoms: _43  and  _46
REMARK    8  A    between atoms: _53  and  _55
REMARK                            x       y       z     vdW  Elec       q    Type
REMARK                         _______ _______ _______ _____ _____    ______ ____
ROOT
ATOM     10  C   UNL     1      16.608 -48.719  14.280  0.00  0.00    +0.038 A 
ATOM     11  C   UNL     1      16.036 -48.706  12.983  0.00  0.00    +0.047 A 
ATOM     12  C   UNL     1      15.993 -49.909  12.166  0.00  0.00    +0.035 A 
ATOM     32  C   UNL     1      16.540 -51.110  12.705  0.00  0.00    +0.024 A 
ATOM     33  C   UNL     1      17.126 -51.142  14.021  0.00  0.00    +0.007 A 
ATOM     34  C   UNL     1      17.173 -49.957  14.830  0.00  0.00    -0.029 A 
ATOM     35  C   UNL     1      17.820 -50.048  16.232  0.00  0.00    +0.045 C 
ENDROOT
BRANCH  10   9
ATOM      4  C   UNL     1      14.668 -45.691  17.459  0.00  0.00    +0.077 A 
ATOM      5  C   UNL     1      13.516 -46.526  17.641  0.00  0.00    +0.048 A 
ATOM      6  C   UNL     1      13.457 -47.723  16.892  0.00  0.00    +0.116 A 
ATOM      7  N   UNL     1      14.481 -48.050  16.029  0.00  0.00    -0.223 NA
ATOM      8  C   UNL     1      15.577 -47.222  15.877  0.00  0.00    +0.220 A 
ATOM      9  N   UNL     1      16.622 -47.535  15.021  0.00  0.00    -0.283 N 
ATOM     36  H   UNL     1      17.410 -46.894  14.931  0.00  0.00    +0.155 HD
ATOM     37  N   UNL     1      15.656 -46.073  16.579  0.00  0.00    -0.214 NA
BRANCH   4   3
ATOM      1  C   UNL     1      15.249 -41.902  18.238  0.00  0.00    +0.020 A 
ATOM      2  C   UNL     1      15.052 -43.124  17.493  0.00  0.00    +0.013 A 
ATOM      3  C   UNL     1      14.876 -44.397  18.182  0.00  0.00    +0.019 A 
ATOM     38  C   UNL     1      14.906 -44.398  19.637  0.00  0.00    +0.120 A 
ATOM     39  N   UNL     1      15.099 -43.206  20.328  0.00  0.00    -0.263 NA
ATOM     40  C   UNL     1      15.271 -41.976  19.676  0.00  0.00    +0.111 A 
ENDBRANCH   4   3
ENDBRANCH  10   9
BRANCH  12  13
ATOM     13  N   UNL     1      15.432 -49.954  10.839  0.00  0.00    -0.281 N 
ATOM     14  C   UNL     1      14.131 -49.673  10.454  0.00  0.00    +0.248 C 
ATOM     30  O   UNL     1      13.193 -49.547  11.228  0.00  0.00    -0.270 OA
ATOM     31  H   UNL     1      16.072 -50.225  10.092  0.00  0.00    +0.155 HD
BRANCH  14  15
ATOM     15  C   UNL     1      13.825 -49.526   8.999  0.00  0.00    +0.037 A 
ATOM     16  C   UNL     1      14.416 -48.447   8.203  0.00  0.00    +0.013 A 
ATOM     17  C   UNL     1      14.090 -48.317   6.805  0.00  0.00    +0.005 A 
ATOM     18  C   UNL     1      13.168 -49.271   6.193  0.00  0.00    -0.033 A 
ATOM     28  C   UNL     1      12.600 -50.335   7.004  0.00  0.00    +0.005 A 
ATOM     29  C   UNL     1      12.916 -50.465   8.375  0.00  0.00    +0.013 A 
BRANCH  18  19
ATOM     19  C   UNL     1      12.748 -49.196   4.713  0.00  0.00    +0.119 C 
BRANCH  19  20
ATOM     20  N   UNL     1      13.801 -49.460   3.688  0.00  0.00    -0.302 NA
ATOM     21  C   UNL     1      14.849 -50.459   4.187  0.00  0.00    +0.066 C 
ATOM     22  C   UNL     1      15.932 -50.741   3.094  0.00  0.00    -0.064 C 
ATOM     23  N   UNL     1      16.592 -49.424   2.682  0.00  0.00    +0.379 N 
ATOM     24  C   UNL     1      17.650 -49.692   1.697  0.00  0.00    -0.096 C 
ATOM     25  H   UNL     1      17.075 -48.990   3.589  0.00  0.00    -0.082 HD
ATOM     26  C   UNL     1      15.556 -48.424   2.188  0.00  0.00    -0.064 C 
ATOM     27  C   UNL     1      14.469 -48.173   3.270  0.00  0.00    +0.066 C 
ENDBRANCH  19  20
ENDBRANCH  18  19
ENDBRANCH  14  15
ENDBRANCH  12  13
TORSDOF 6
ENDMDL
MODEL 2
REMARK VINA RESULT:      -7.5      3.767      5.166
REMARK  Name = C:\Users\Docking\Desktop\test protocol\1iep_ligandH.pdb
REMARK  8 active torsions:
REMARK  status: ('A' for Active; 'I' for Inactive)
REMARK    1  A    between atoms: _5  and  _11
REMARK    2  A    between atoms: _19  and  _21
REMARK    3  A    between atoms: _22  and  _66
REMARK    4  A    between atoms: _27  and  _30
REMARK    5  A    between atoms: _32  and  _33
REMARK    6  A    between atoms: _38  and  _43
REMARK    7  A    between atoms: _43  and  _46
REMARK    8  A    between atoms: _53  and  _55
REMARK                            x       y       z     vdW  Elec       q    Type
REMARK                         _______ _______ _______ _____ _____    ______ ____
ROOT
ATOM     10  C   UNL     1      13.232 -49.502  11.851  0.00  0.00    +0.038 A 
ATOM     11  C   UNL     1      14.097 -49.109  10.798  0.00  0.00    +0.047 A 
ATOM     12  C   UNL     1      14.186 -49.883   9.569  0.00  0.00    +0.035 A 
ATOM     32  C   UNL     1      13.378 -51.051   9.446  0.00  0.00    +0.024 A 
ATOM     33  C   UNL     1      12.495 -51.466  10.507  0.00  0.00    +0.007 A 
ATOM     34  C   UNL     1      12.404 -50.708  11.722  0.00  0.00    -0.029 A 
ATOM     35  C   UNL     1      11.445 -51.203  12.829  0.00  0.00    +0.045 C 
ENDROOT
BRANCH  10   9
ATOM      4  C   UNL     1      15.158 -47.863  15.930  0.00  0.00    +0.077 A 
ATOM      5  C   UNL     1      16.346 -48.647  15.754  0.00  0.00    +0.048 A 
ATOM      6  C   UNL     1      16.419 -49.465  14.604  0.00  0.00    +0.116 A 
ATOM      7  N   UNL     1      15.376 -49.488  13.704  0.00  0.00    -0.223 NA
ATOM      8  C   UNL     1      14.243 -48.720  13.905  0.00  0.00    +0.220 A 
ATOM      9  N   UNL     1      13.186 -48.722  13.009  0.00  0.00    -0.283 N 
ATOM     36  H   UNL     1      12.364 -48.148  13.197  0.00  0.00    +0.155 HD
ATOM     37  N   UNL     1      14.149 -47.933  14.996  0.00  0.00    -0.214 NA
BRANCH   4   3
ATOM      1  C   UNL     1      15.752 -45.429  18.934  0.00  0.00    +0.020 A 
ATOM      2  C   UNL     1      16.023 -46.305  17.818  0.00  0.00    +0.013 A 
ATOM      3  C   UNL     1      14.933 -46.947  17.093  0.00  0.00    +0.019 A 
ATOM     38  C   UNL     1      13.570 -46.679  17.526  0.00  0.00    +0.120 A 
ATOM     39  N   UNL     1      13.340 -45.831  18.606  0.00  0.00    -0.263 NA
ATOM     40  C   UNL     1      14.380 -45.209  19.312  0.00  0.00    +0.111 A 
ENDBRANCH   4   3
ENDBRANCH  10   9
BRANCH  12  13
ATOM     13  N   UNL     1      15.052 -49.537   8.469  0.00  0.00    -0.281 N 
ATOM     14  C   UNL     1      14.849 -48.572   7.497  0.00  0.00    +0.248 C 
ATOM     30  O   UNL     1      13.786 -48.001   7.301  0.00  0.00    -0.270 OA
ATOM     31  H   UNL     1      15.920 -50.069   8.399  0.00  0.00    +0.155 HD
BRANCH  14  15
ATOM     15  C   UNL     1      15.987 -48.196   6.604  0.00  0.00    +0.037 A 
ATOM     16  C   UNL     1      16.900 -49.210   6.068  0.00  0.00    +0.013 A 
ATOM     17  C   UNL     1      18.000 -48.818   5.223  0.00  0.00    +0.005 A 
ATOM     18  C   UNL     1      18.192 -47.405   4.907  0.00  0.00    -0.033 A 
ATOM     28  C   UNL     1      17.269 -46.421   5.447  0.00  0.00    +0.005 A 
ATOM     29  C   UNL     1      16.190 -46.801   6.277  0.00  0.00    +0.013 A 
BRANCH  18  19
ATOM     19  C   UNL     1      19.351 -46.895   4.030  0.00  0.00    +0.119 C 
BRANCH  19  20
ATOM     20  N   UNL     1      19.572 -45.419   3.980  0.00  0.00    -0.302 NA
ATOM     21  C   UNL     1      19.715 -44.908   2.544  0.00  0.00    +0.066 C 
ATOM     22  C   UNL     1      19.923 -43.358   2.509  0.00  0.00    -0.064 C 
ATOM     23  N   UNL     1      21.155 -42.993   3.339  0.00  0.00    +0.379 N 
ATOM     24  C   UNL     1      21.387 -41.543   3.261  0.00  0.00    -0.096 C 
ATOM     25  H   UNL     1      22.034 -43.502   2.881  0.00  0.00    -0.082 HD
ATOM     26  C   UNL     1      21.022 -43.500   4.768  0.00  0.00    -0.064 C 
ATOM     27  C   UNL     1      20.786 -45.036   4.790  0.00  0.00    +0.066 C 
ENDBRANCH  19  20
ENDBRANCH  18  19
ENDBRANCH  14  15
ENDBRANCH  12  13
TORSDOF 6
ENDMDL
MODEL 3
REMARK VINA RESULT:      -7.3      3.696      5.252
REMARK  Name = C:\Users\Docking\Desktop\test protocol\1iep_ligandH.pdb
REMARK  8 active torsions:
REMARK  status: ('A' for Active; 'I' for Inactive)
REMARK    1  A    between atoms: _5  and  _11
REMARK    2  A    between atoms: _19  and  _21
REMARK    3  A    between atoms: _22  and  _66
REMARK    4  A    between atoms: _27  and  _30
REMARK    5  A    between atoms: _32  and  _33
REMARK    6  A    between atoms: _38  and  _43
REMARK    7  A    between atoms: _43  and  _46
REMARK    8  A    between atoms: _53  and  _55
REMARK                            x       y       z     vdW  Elec       q    Type
REMARK                         _______ _______ _______ _____ _____    ______ ____
ROOT
ATOM     10  C   UNL     1      13.183 -49.648  11.777  0.00  0.00    +0.038 A 
ATOM     11  C   UNL     1      14.049 -49.224  10.737  0.00  0.00    +0.047 A 
ATOM     12  C   UNL     1      14.146 -49.964   9.489  0.00  0.00    +0.035 A 
ATOM     32  C   UNL     1      13.344 -51.132   9.332  0.00  0.00    +0.024 A 
ATOM     33  C   UNL     1      12.459 -51.579  10.379  0.00  0.00    +0.007 A 
ATOM     34  C   UNL     1      12.361 -50.854  11.614  0.00  0.00    -0.029 A 
ATOM     35  C   UNL     1      11.400 -51.382  12.704  0.00  0.00    +0.045 C 
ENDROOT
BRANCH  10   9
ATOM      4  C   UNL     1      14.889 -48.414  16.090  0.00  0.00    +0.077 A 
ATOM      5  C   UNL     1      15.963 -49.361  16.001  0.00  0.00    +0.048 A 
ATOM      6  C   UNL     1      16.037 -50.151  14.832  0.00  0.00    +0.116 A 
ATOM      7  N   UNL     1      15.101 -49.998  13.833  0.00  0.00    -0.223 NA
ATOM      8  C   UNL     1      14.077 -49.076  13.950  0.00  0.00    +0.220 A 
ATOM      9  N   UNL     1      13.129 -48.899  12.954  0.00  0.00    -0.283 N 
ATOM     36  H   UNL     1      12.384 -48.214  13.082  0.00  0.00    +0.155 HD
ATOM     37  N   UNL     1      13.984 -48.310  15.057  0.00  0.00    -0.214 NA
BRANCH   4   3
ATOM      1  C   UNL     1      14.173 -45.253  18.280  0.00  0.00    +0.020 A 
ATOM      2  C   UNL     1      14.367 -46.088  17.117  0.00  0.00    +0.013 A 
ATOM      3  C   UNL     1      14.679 -47.505  17.260  0.00  0.00    +0.019 A 
ATOM     38  C   UNL     1      14.788 -48.050  18.605  0.00  0.00    +0.120 A 
ATOM     39  N   UNL     1      14.598 -47.221  19.706  0.00  0.00    -0.263 NA
ATOM     40  C   UNL     1      14.299 -45.856  19.581  0.00  0.00    +0.111 A 
ENDBRANCH   4   3
ENDBRANCH  10   9
BRANCH  12  13
ATOM     13  N   UNL     1      15.013 -49.586   8.401  0.00  0.00    -0.281 N 
ATOM     14  C   UNL     1      14.840 -48.554   7.493  0.00  0.00    +0.248 C 
ATOM     30  O   UNL     1      13.800 -47.929   7.347  0.00  0.00    -0.270 OA
ATOM     31  H   UNL     1      15.857 -50.147   8.286  0.00  0.00    +0.155 HD
BRANCH  14  15
ATOM     15  C   UNL     1      15.983 -48.170   6.610  0.00  0.00    +0.037 A 
ATOM     16  C   UNL     1      16.928 -49.172   6.111  0.00  0.00    +0.013 A 
ATOM     17  C   UNL     1      18.032 -48.772   5.275  0.00  0.00    +0.005 A 
ATOM     18  C   UNL     1      18.196 -47.362   4.931  0.00  0.00    -0.033 A 
ATOM     28  C   UNL     1      17.240 -46.389   5.435  0.00  0.00    +0.005 A 
ATOM     29  C   UNL     1      16.158 -46.777   6.256  0.00  0.00    +0.013 A 
BRANCH  18  19
ATOM     19  C   UNL     1      19.356 -46.842   4.062  0.00  0.00    +0.119 C 
BRANCH  19  20
ATOM     20  N   UNL     1      20.737 -46.975   4.615  0.00  0.00    -0.302 NA
ATOM     21  C   UNL     1      21.524 -45.665   4.516  0.00  0.00    +0.066 C 
ATOM     22  C   UNL     1      22.958 -45.815   5.120  0.00  0.00    -0.064 C 
ATOM     23  N   UNL     1      23.696 -46.945   4.399  0.00  0.00    +0.379 N 
ATOM     24  C   UNL     1      25.065 -47.051   4.924  0.00  0.00    -0.096 C 
ATOM     25  H   UNL     1      23.767 -46.668   3.321  0.00  0.00    -0.082 HD
ATOM     26  C   UNL     1      22.919 -48.251   4.489  0.00  0.00    -0.064 C 
ATOM     27  C   UNL     1      21.485 -48.082   3.914  0.00  0.00    +0.066 C 
ENDBRANCH  19  20
ENDBRANCH  18  19
ENDBRANCH  14  15
ENDBRANCH  12  13
TORSDOF 6
ENDMDL
MODEL 4
REMARK VINA RESULT:      -7.0      2.917      4.187
REMARK  Name = C:\Users\Docking\Desktop\test protocol\1iep_ligandH.pdb
REMARK  8 active torsions:
REMARK  status: ('A' for Active; 'I' for Inactive)
REMARK    1  A    between atoms: _5  and  _11
REMARK    2  A    between atoms: _19  and  _21
REMARK    3  A    between atoms: _22  and  _66
REMARK    4  A    between atoms: _27  and  _30
REMARK    5  A    between atoms: _32  and  _33
REMARK    6  A    between atoms: _38  and  _43
REMARK    7  A    between atoms: _43  and  _46
REMARK    8  A    between atoms: _53  and  _55
REMARK                            x       y       z     vdW  Elec       q    Type
REMARK                         _______ _______ _______ _____ _____    ______ ____
ROOT
ATOM     10  C   UNL     1      14.032 -48.269  17.161  0.00  0.00    +0.038 A 
ATOM     11  C   UNL     1      14.090 -48.235  15.744  0.00  0.00    +0.047 A 
ATOM     12  C   UNL     1      13.284 -49.137  14.936  0.00  0.00    +0.035 A 
ATOM     32  C   UNL     1      12.429 -50.060  15.605  0.00  0.00    +0.024 A 
ATOM     33  C   UNL     1      12.359 -50.109  17.044  0.00  0.00    +0.007 A 
ATOM     34  C   UNL     1      13.153 -49.223  17.846  0.00  0.00    -0.029 A 
ATOM     35  C   UNL     1      13.042 -49.324  19.385  0.00  0.00    +0.045 C 
ENDROOT
BRANCH  10   9
ATOM      4  C   UNL     1      14.696 -44.142  19.521  0.00  0.00    +0.077 A 
ATOM      5  C   UNL     1      13.352 -43.710  19.263  0.00  0.00    +0.048 A 
ATOM      6  C   UNL     1      12.525 -44.576  18.513  0.00  0.00    +0.116 A 
ATOM      7  N   UNL     1      13.015 -45.782  18.061  0.00  0.00    -0.223 NA
ATOM      8  C   UNL     1      14.316 -46.168  18.326  0.00  0.00    +0.220 A 
ATOM      9  N   UNL     1      14.828 -47.379  17.887  0.00  0.00    -0.283 N 
ATOM     36  H   UNL     1      15.795 -47.624  18.097  0.00  0.00    +0.155 HD
ATOM     37  N   UNL     1      15.127 -45.358  19.038  0.00  0.00    -0.214 NA
BRANCH   4   3
ATOM      1  C   UNL     1      16.485 -41.203  21.380  0.00  0.00    +0.020 A 
ATOM      2  C   UNL     1      15.495 -41.932  20.622  0.00  0.00    +0.013 A 
ATOM      3  C   UNL     1      15.690 -43.340  20.302  0.00  0.00    +0.019 A 
ATOM     38  C   UNL     1      16.907 -43.986  20.768  0.00  0.00    +0.120 A 
ATOM     39  N   UNL     1      17.845 -43.259  21.494  0.00  0.00    -0.263 NA
ATOM     40  C   UNL     1      17.669 -41.902  21.807  0.00  0.00    +0.111 A 
ENDBRANCH   4   3
ENDBRANCH  10   9
BRANCH  12  13
ATOM     13  N   UNL     1      13.307 -49.154  13.495  0.00  0.00    -0.281 N 
ATOM     14  C   UNL     1      14.249 -49.739  12.665  0.00  0.00    +0.248 C 
ATOM     30  O   UNL     1      15.336 -50.156  13.038  0.00  0.00    -0.270 OA
ATOM     31  H   UNL     1      12.535 -48.677  13.030  0.00  0.00    +0.155 HD
BRANCH  14  15
ATOM     15  C   UNL     1      13.947 -49.866  11.206  0.00  0.00    +0.037 A 
ATOM     16  C   UNL     1      12.962 -50.834  10.716  0.00  0.00    +0.013 A 
ATOM     17  C   UNL     1      12.702 -50.948   9.303  0.00  0.00    +0.005 A 
ATOM     18  C   UNL     1      13.428 -50.090   8.369  0.00  0.00    -0.033 A 
ATOM     28  C   UNL     1      14.396 -49.135   8.883  0.00  0.00    +0.005 A 
ATOM     29  C   UNL     1      14.654 -49.021  10.268  0.00  0.00    +0.013 A 
BRANCH  18  19
ATOM     19  C   UNL     1      13.230 -50.158   6.844  0.00  0.00    +0.119 C 
BRANCH  19  20
ATOM     20  N   UNL     1      11.882 -50.566   6.347  0.00  0.00    -0.302 NA
ATOM     21  C   UNL     1      11.944 -51.154   4.934  0.00  0.00    +0.066 C 
ATOM     22  C   UNL     1      10.529 -51.596   4.439  0.00  0.00    -0.064 C 
ATOM     23  N   UNL     1       9.578 -50.399   4.486  0.00  0.00    +0.379 N 
ATOM     24  C   UNL     1       8.261 -50.797   3.967  0.00  0.00    -0.096 C 
ATOM     25  H   UNL     1       9.987 -49.615   3.807  0.00  0.00    -0.082 HD
ATOM     26  C   UNL     1       9.512 -49.807   5.887  0.00  0.00    -0.064 C 
ATOM     27  C   UNL     1      10.928 -49.398   6.381  0.00  0.00    +0.066 C 
ENDBRANCH  19  20
ENDBRANCH  18  19
ENDBRANCH  14  15
ENDBRANCH  12  13
TORSDOF 6
ENDMDL
MODEL 5
REMARK VINA RESULT:      -7.0      2.272      3.275
REMARK  Name = C:\Users\Docking\Desktop\test protocol\1iep_ligandH.pdb
REMARK  8 active torsions:
REMARK  status: ('A' for Active; 'I' for Inactive)
REMARK    1  A    between atoms: _5  and  _11
REMARK    2  A    between atoms: _19  and  _21
REMARK    3  A    between atoms: _22  and  _66
REMARK    4  A    between atoms: _27  and  _30
REMARK    5  A    between atoms: _32  and  _33
REMARK    6  A    between atoms: _38  and  _43
REMARK    7  A    between atoms: _43  and  _46
REMARK    8  A    between atoms: _53  and  _55
REMARK                            x       y       z     vdW  Elec       q    Type
REMARK                         _______ _______ _______ _____ _____    ______ ____
ROOT
ATOM     10  C   UNL     1      13.362 -49.551  13.208  0.00  0.00    +0.038 A 
ATOM     11  C   UNL     1      13.716 -48.946  11.975  0.00  0.00    +0.047 A 
ATOM     12  C   UNL     1      13.963 -49.749  10.787  0.00  0.00    +0.035 A 
ATOM     32  C   UNL     1      13.838 -51.165  10.890  0.00  0.00    +0.024 A 
ATOM     33  C   UNL     1      13.480 -51.796  12.135  0.00  0.00    +0.007 A 
ATOM     34  C   UNL     1      13.237 -51.010  13.311  0.00  0.00    -0.029 A 
ATOM     35  C   UNL     1      12.863 -51.741  14.621  0.00  0.00    +0.045 C 
ENDROOT
BRANCH  10   9
ATOM      4  C   UNL     1      14.895 -47.073  17.022  0.00  0.00    +0.077 A 
ATOM      5  C   UNL     1      16.257 -47.463  16.802  0.00  0.00    +0.048 A 
ATOM      6  C   UNL     1      16.521 -48.308  15.700  0.00  0.00    +0.116 A 
ATOM      7  N   UNL     1      15.490 -48.725  14.886  0.00  0.00    -0.223 NA
ATOM      8  C   UNL     1      14.187 -48.332  15.127  0.00  0.00    +0.220 A 
ATOM      9  N   UNL     1      13.136 -48.733  14.317  0.00  0.00    -0.283 N 
ATOM     36  H   UNL     1      12.187 -48.427  14.533  0.00  0.00    +0.155 HD
ATOM     37  N   UNL     1      13.909 -47.527  16.174  0.00  0.00    -0.214 NA
BRANCH   4   3
ATOM      1  C   UNL     1      13.604 -43.988  19.051  0.00  0.00    +0.020 A 
ATOM      2  C   UNL     1      14.017 -44.807  17.935  0.00  0.00    +0.013 A 
ATOM      3  C   UNL     1      14.457 -46.181  18.142  0.00  0.00    +0.019 A 
ATOM     38  C   UNL     1      14.468 -46.700  19.501  0.00  0.00    +0.120 A 
ATOM     39  N   UNL     1      14.067 -45.887  20.557  0.00  0.00    -0.263 NA
ATOM     40  C   UNL     1      13.642 -44.563  20.370  0.00  0.00    +0.111 A 
ENDBRANCH   4   3
ENDBRANCH  10   9
BRANCH  12  13
ATOM     13  N   UNL     1      14.334 -49.191   9.510  0.00  0.00    -0.281 N 
ATOM     14  C   UNL     1      13.648 -49.282   8.309  0.00  0.00    +0.248 C 
ATOM     30  O   UNL     1      12.714 -50.042   8.103  0.00  0.00    -0.270 OA
ATOM     31  H   UNL     1      15.208 -48.665   9.488  0.00  0.00    +0.155 HD
BRANCH  14  15
ATOM     15  C   UNL     1      14.071 -48.414   7.169  0.00  0.00    +0.037 A 
ATOM     16  C   UNL     1      13.111 -47.972   6.154  0.00  0.00    +0.013 A 
ATOM     17  C   UNL     1      13.549 -47.149   5.054  0.00  0.00    +0.005 A 
ATOM     18  C   UNL     1      14.954 -46.760   4.966  0.00  0.00    -0.033 A 
ATOM     28  C   UNL     1      15.884 -47.208   5.989  0.00  0.00    +0.005 A 
ATOM     29  C   UNL     1      15.459 -48.016   7.068  0.00  0.00    +0.013 A 
BRANCH  18  19
ATOM     19  C   UNL     1      15.514 -45.901   3.816  0.00  0.00    +0.119 C 
BRANCH  19  20
ATOM     20  N   UNL     1      16.173 -46.619   2.685  0.00  0.00    -0.302 NA
ATOM     21  C   UNL     1      17.645 -46.223   2.534  0.00  0.00    +0.066 C 
ATOM     22  C   UNL     1      18.326 -47.000   1.360  0.00  0.00    -0.064 C 
ATOM     23  N   UNL     1      17.558 -46.735   0.064  0.00  0.00    +0.379 N 
ATOM     24  C   UNL     1      18.229 -47.417  -1.052  0.00  0.00    -0.096 C 
ATOM     25  H   UNL     1      17.599 -45.639  -0.136  0.00  0.00    -0.082 HD
ATOM     26  C   UNL     1      16.093 -47.123   0.206  0.00  0.00    -0.064 C 
ATOM     27  C   UNL     1      15.434 -46.368   1.394  0.00  0.00    +0.066 C 
ENDBRANCH  19  20
ENDBRANCH  18  19
ENDBRANCH  14  15
ENDBRANCH  12  13
TORSDOF 6
ENDMDL
