MODEL 1
REMARK VINA RESULT:      -8.5      0.000      0.000
REMARK  Name = C:\Users\Docking\Desktop\test protocol\1iep_ligandH.pdb
REMARK  8 active torsions:
REMARK  status: ('A' for Active; 'I' for Inactive)
REMARK    1  A    between atoms: _5  and  _11
REMARK    2  A    between atoms: _19  and  _21
REMARK    3  A    between atoms: _22  and  _66
REMARK    4  A    between atoms: _27  and  _30
REMARK    5  A    between atoms: _32  and  _33
REMARK    6  A    between atoms: _38  and  _43
REMARK    7  A    between atoms: _43  and  _46
REMARK    8  A    between atoms: _53  and  _55
REMARK                            x       y       z     vdW  Elec       q    Type
REMARK                         _______ _______ _______ _____ _____    ______ ____
ROOT
ATOM     10  C   UNL     1      20.763   8.256 -23.507  0.00  0.00    +0.038 A 
ATOM     11  C   UNL     1      20.915   6.853 -23.643  0.00  0.00    +0.047 A 
ATOM     12  C   UNL     1      22.025   6.286 -24.394  0.00  0.00    +0.035 A 
ATOM     32  C   UNL     1      22.963   7.178 -24.991  0.00  0.00    +0.024 A 
ATOM     33  C   UNL     1      22.822   8.607 -24.863  0.00  0.00    +0.007 A 
ATOM     34  C   UNL     1      21.728   9.172 -24.126  0.00  0.00    -0.029 A 
ATOM     35  C   UNL     1      21.623  10.712 -24.028  0.00  0.00    +0.045 C 
ENDROOT
BRANCH  10   9
ATOM      4  C   UNL     1      16.274   9.928 -23.198  0.00  0.00    +0.077 A 
ATOM      5  C   UNL     1      16.082   9.845 -24.617  0.00  0.00    +0.048 A 
ATOM      6  C   UNL     1      17.166   9.373 -25.392  0.00  0.00    +0.116 A 
ATOM      7  N   UNL     1      18.348   9.014 -24.782  0.00  0.00    -0.223 NA
ATOM      8  C   UNL     1      18.501   9.109 -23.411  0.00  0.00    +0.220 A 
ATOM      9  N   UNL     1      19.678   8.746 -22.776  0.00  0.00    -0.283 N 
ATOM     36  H   UNL     1      19.754   8.838 -21.763  0.00  0.00    +0.155 HD
ATOM     37  N   UNL     1      17.481   9.558 -22.649  0.00  0.00    -0.214 NA
BRANCH   4   3
ATOM      1  C   UNL     1      13.420  10.010 -20.524  0.00  0.00    +0.020 A 
ATOM      2  C   UNL     1      14.424   9.499 -21.429  0.00  0.00    +0.013 A 
ATOM      3  C   UNL     1      15.222  10.405 -22.245  0.00  0.00    +0.019 A 
ATOM     38  C   UNL     1      14.979  11.834 -22.120  0.00  0.00    +0.120 A 
ATOM     39  N   UNL     1      14.005  12.297 -21.241  0.00  0.00    -0.263 NA
ATOM     40  C   UNL     1      13.230  11.435 -20.452  0.00  0.00    +0.111 A 
ENDBRANCH   4   3
ENDBRANCH  10   9
BRANCH  12  13
ATOM     13  N   UNL     1      22.227   4.869 -24.573  0.00  0.00    -0.281 N 
ATOM     14  C   UNL     1      21.530   4.008 -25.404  0.00  0.00    +0.248 C 
ATOM     30  O   UNL     1      20.481   4.287 -25.965  0.00  0.00    -0.270 OA
ATOM     31  H   UNL     1      22.975   4.451 -24.019  0.00  0.00    +0.155 HD
BRANCH  14  15
ATOM     15  C   UNL     1      22.069   2.633 -25.635  0.00  0.00    +0.037 A 
ATOM     16  C   UNL     1      21.204   1.454 -25.552  0.00  0.00    +0.013 A 
ATOM     17  C   UNL     1      21.753   0.138 -25.762  0.00  0.00    +0.005 A 
ATOM     18  C   UNL     1      23.177  -0.005 -26.059  0.00  0.00    -0.033 A 
ATOM     28  C   UNL     1      24.011   1.182 -26.140  0.00  0.00    +0.005 A 
ATOM     29  C   UNL     1      23.477   2.473 -25.934  0.00  0.00    +0.013 A 
BRANCH  18  19
ATOM     19  C   UNL     1      23.852  -1.372 -26.276  0.00  0.00    +0.119 C 
BRANCH  19  20
ATOM     20  N   UNL     1      24.207  -1.744 -27.678  0.00  0.00    -0.302 NA
ATOM     21  C   UNL     1      25.545  -1.140 -28.112  0.00  0.00    +0.066 C 
ATOM     22  C   UNL     1      25.912  -1.557 -29.573  0.00  0.00    -0.064 C 
ATOM     23  N   UNL     1      24.791  -1.126 -30.520  0.00  0.00    +0.379 N 
ATOM     24  C   UNL     1      25.158  -1.466 -31.903  0.00  0.00    -0.096 C 
ATOM     25  H   UNL     1      24.702  -0.017 -30.456  0.00  0.00    -0.082 HD
ATOM     26  C   UNL     1      23.456  -1.721 -30.095  0.00  0.00    -0.064 C 
ATOM     27  C   UNL     1      23.115  -1.324 -28.631  0.00  0.00    +0.066 C 
ENDBRANCH  19  20
ENDBRANCH  18  19
ENDBRANCH  14  15
ENDBRANCH  12  13
TORSDOF 6
ENDMDL
MODEL 2
REMARK VINA RESULT:      -8.3      2.400     13.205
REMARK  Name = C:\Users\Docking\Desktop\test protocol\1iep_ligandH.pdb
REMARK  8 active torsions:
REMARK  status: ('A' for Active; 'I' for Inactive)
REMARK    1  A    between atoms: _5  and  _11
REMARK    2  A    between atoms: _19  and  _21
REMARK    3  A    between atoms: _22  and  _66
REMARK    4  A    between atoms: _27  and  _30
REMARK    5  A    between atoms: _32  and  _33
REMARK    6  A    between atoms: _38  and  _43
REMARK    7  A    between atoms: _43  and  _46
REMARK    8  A    between atoms: _53  and  _55
REMARK                            x       y       z     vdW  Elec       q    Type
REMARK                         _______ _______ _______ _____ _____    ______ ____
ROOT
ATOM     10  C   UNL     1      22.407   7.100 -24.015  0.00  0.00    +0.038 A 
ATOM     11  C   UNL     1      21.178   7.701 -23.642  0.00  0.00    +0.047 A 
ATOM     12  C   UNL     1      21.051   9.146 -23.526  0.00  0.00    +0.035 A 
ATOM     32  C   UNL     1      22.197   9.948 -23.802  0.00  0.00    +0.024 A 
ATOM     33  C   UNL     1      23.454   9.353 -24.182  0.00  0.00    +0.007 A 
ATOM     34  C   UNL     1      23.585   7.929 -24.295  0.00  0.00    -0.029 A 
ATOM     35  C   UNL     1      24.959   7.346 -24.699  0.00  0.00    +0.045 C 
ENDROOT
BRANCH  10   9
ATOM      4  C   UNL     1      22.052   3.006 -26.496  0.00  0.00    +0.077 A 
ATOM      5  C   UNL     1      21.680   3.697 -27.697  0.00  0.00    +0.048 A 
ATOM      6  C   UNL     1      21.584   5.105 -27.632  0.00  0.00    +0.116 A 
ATOM      7  N   UNL     1      21.844   5.763 -26.449  0.00  0.00    -0.223 NA
ATOM      8  C   UNL     1      22.198   5.066 -25.309  0.00  0.00    +0.220 A 
ATOM      9  N   UNL     1      22.472   5.708 -24.111  0.00  0.00    -0.283 N 
ATOM     36  H   UNL     1      22.723   5.157 -23.290  0.00  0.00    +0.155 HD
ATOM     37  N   UNL     1      22.295   3.721 -25.345  0.00  0.00    -0.214 NA
BRANCH   4   3
ATOM      1  C   UNL     1      23.198  -0.573 -25.412  0.00  0.00    +0.020 A 
ATOM      2  C   UNL     1      23.094   0.867 -25.458  0.00  0.00    +0.013 A 
ATOM      3  C   UNL     1      22.199   1.519 -26.406  0.00  0.00    +0.019 A 
ATOM     38  C   UNL     1      21.416   0.678 -27.299  0.00  0.00    +0.120 A 
ATOM     39  N   UNL     1      21.538  -0.707 -27.233  0.00  0.00    -0.263 NA
ATOM     40  C   UNL     1      22.398  -1.345 -26.326  0.00  0.00    +0.111 A 
ENDBRANCH   4   3
ENDBRANCH  10   9
BRANCH  12  13
ATOM     13  N   UNL     1      19.832   9.812 -23.143  0.00  0.00    -0.281 N 
ATOM     14  C   UNL     1      18.726  10.084 -23.932  0.00  0.00    +0.248 C 
ATOM     30  O   UNL     1      18.704   9.984 -25.150  0.00  0.00    -0.270 OA
ATOM     31  H   UNL     1      19.777  10.122 -22.173  0.00  0.00    +0.155 HD
BRANCH  14  15
ATOM     15  C   UNL     1      17.466  10.548 -23.274  0.00  0.00    +0.037 A 
ATOM     16  C   UNL     1      17.261  11.959 -22.937  0.00  0.00    +0.013 A 
ATOM     17  C   UNL     1      16.044  12.377 -22.287  0.00  0.00    +0.005 A 
ATOM     18  C   UNL     1      15.022  11.382 -21.972  0.00  0.00    -0.033 A 
ATOM     28  C   UNL     1      15.249   9.990 -22.323  0.00  0.00    +0.005 A 
ATOM     29  C   UNL     1      16.441   9.576 -22.959  0.00  0.00    +0.013 A 
BRANCH  18  19
ATOM     19  C   UNL     1      13.702  11.735 -21.261  0.00  0.00    +0.119 C 
BRANCH  19  20
ATOM     20  N   UNL     1      13.366  13.184 -21.122  0.00  0.00    -0.302 NA
ATOM     21  C   UNL     1      12.547  13.465 -19.859  0.00  0.00    +0.066 C 
ATOM     22  C   UNL     1      12.225  14.989 -19.718  0.00  0.00    -0.064 C 
ATOM     23  N   UNL     1      11.478  15.467 -20.964  0.00  0.00    +0.379 N 
ATOM     24  C   UNL     1      11.122  16.885 -20.809  0.00  0.00    -0.096 C 
ATOM     25  H   UNL     1      10.530  14.885 -21.034  0.00  0.00    -0.082 HD
ATOM     26  C   UNL     1      12.284  15.188 -22.225  0.00  0.00    -0.064 C 
ATOM     27  C   UNL     1      12.625  13.676 -22.341  0.00  0.00    +0.066 C 
ENDBRANCH  19  20
ENDBRANCH  18  19
ENDBRANCH  14  15
ENDBRANCH  12  13
TORSDOF 6
ENDMDL
MODEL 3
REMARK VINA RESULT:      -7.7     14.698     21.313
REMARK  Name = C:\Users\Docking\Desktop\test protocol\1iep_ligandH.pdb
REMARK  8 active torsions:
REMARK  status: ('A' for Active; 'I' for Inactive)
REMARK    1  A    between atoms: _5  and  _11
REMARK    2  A    between atoms: _19  and  _21
REMARK    3  A    between atoms: _22  and  _66
REMARK    4  A    between atoms: _27  and  _30
REMARK    5  A    between atoms: _32  and  _33
REMARK    6  A    between atoms: _38  and  _43
REMARK    7  A    between atoms: _43  and  _46
REMARK    8  A    between atoms: _53  and  _55
REMARK                            x       y       z     vdW  Elec       q    Type
REMARK                         _______ _______ _______ _____ _____    ______ ____
ROOT
ATOM     10  C   UNL     1      15.695   9.991  -9.589  0.00  0.00    +0.038 A 
ATOM     11  C   UNL     1      14.538   9.423  -8.997  0.00  0.00    +0.047 A 
ATOM     12  C   UNL     1      13.530  10.257  -8.361  0.00  0.00    +0.035 A 
ATOM     32  C   UNL     1      13.731  11.668  -8.349  0.00  0.00    +0.024 A 
ATOM     33  C   UNL     1      14.902  12.263  -8.944  0.00  0.00    +0.007 A 
ATOM     34  C   UNL     1      15.901  11.445  -9.571  0.00  0.00    -0.029 A 
ATOM     35  C   UNL     1      17.139  12.136 -10.188  0.00  0.00    +0.045 C 
ENDROOT
BRANCH  10   9
ATOM      4  C   UNL     1      19.782   7.476  -9.513  0.00  0.00    +0.077 A 
ATOM      5  C   UNL     1      20.093   7.910  -8.181  0.00  0.00    +0.048 A 
ATOM      6  C   UNL     1      19.179   8.786  -7.554  0.00  0.00    +0.116 A 
ATOM      7  N   UNL     1      18.042   9.191  -8.218  0.00  0.00    -0.223 NA
ATOM      8  C   UNL     1      17.772   8.755  -9.502  0.00  0.00    +0.220 A 
ATOM      9  N   UNL     1      16.630   9.143 -10.185  0.00  0.00    -0.283 N 
ATOM     36  H   UNL     1      16.471   8.805 -11.134  0.00  0.00    +0.155 HD
ATOM     37  N   UNL     1      18.630   7.919 -10.123  0.00  0.00    -0.214 NA
BRANCH   4   3
ATOM      1  C   UNL     1      21.508   4.251 -10.900  0.00  0.00    +0.020 A 
ATOM      2  C   UNL     1      20.654   5.104 -10.106  0.00  0.00    +0.013 A 
ATOM      3  C   UNL     1      20.647   6.547 -10.307  0.00  0.00    +0.019 A 
ATOM     38  C   UNL     1      21.524   7.101 -11.328  0.00  0.00    +0.120 A 
ATOM     39  N   UNL     1      22.337   6.255 -12.076  0.00  0.00    -0.263 NA
ATOM     40  C   UNL     1      22.353   4.865 -11.890  0.00  0.00    +0.111 A 
ENDBRANCH   4   3
ENDBRANCH  10   9
BRANCH  12  13
ATOM     13  N   UNL     1      12.340   9.736  -7.737  0.00  0.00    -0.281 N 
ATOM     14  C   UNL     1      11.070   9.627  -8.281  0.00  0.00    +0.248 C 
ATOM     30  O   UNL     1      10.716  10.162  -9.321  0.00  0.00    -0.270 OA
ATOM     31  H   UNL     1      12.445   9.406  -6.777  0.00  0.00    +0.155 HD
BRANCH  14  15
ATOM     15  C   UNL     1      10.041   8.819  -7.559  0.00  0.00    +0.037 A 
ATOM     16  C   UNL     1       9.594   9.187  -6.213  0.00  0.00    +0.013 A 
ATOM     17  C   UNL     1       8.612   8.381  -5.532  0.00  0.00    +0.005 A 
ATOM     18  C   UNL     1       8.071   7.198  -6.196  0.00  0.00    -0.033 A 
ATOM     28  C   UNL     1       8.529   6.859  -7.533  0.00  0.00    +0.005 A 
ATOM     29  C   UNL     1       9.491   7.646  -8.204  0.00  0.00    +0.013 A 
BRANCH  18  19
ATOM     19  C   UNL     1       7.036   6.268  -5.536  0.00  0.00    +0.119 C 
BRANCH  19  20
ATOM     20  N   UNL     1       6.418   5.214  -6.395  0.00  0.00    -0.302 NA
ATOM     21  C   UNL     1       5.080   5.667  -6.987  0.00  0.00    +0.066 C 
ATOM     22  C   UNL     1       4.459   4.561  -7.901  0.00  0.00    -0.064 C 
ATOM     23  N   UNL     1       4.285   3.274  -7.092  0.00  0.00    +0.379 N 
ATOM     24  C   UNL     1       3.647   2.250  -7.932  0.00  0.00    -0.096 C 
ATOM     25  H   UNL     1       3.593   3.497  -6.247  0.00  0.00    -0.082 HD
ATOM     26  C   UNL     1       5.609   2.818  -6.497  0.00  0.00    -0.064 C 
ATOM     27  C   UNL     1       6.233   3.935  -5.615  0.00  0.00    +0.066 C 
ENDBRANCH  19  20
ENDBRANCH  18  19
ENDBRANCH  14  15
ENDBRANCH  12  13
TORSDOF 6
ENDMDL
MODEL 4
REMARK VINA RESULT:      -7.6     21.947     25.495
REMARK  Name = C:\Users\Docking\Desktop\test protocol\1iep_ligandH.pdb
REMARK  8 active torsions:
REMARK  status: ('A' for Active; 'I' for Inactive)
REMARK    1  A    between atoms: _5  and  _11
REMARK    2  A    between atoms: _19  and  _21
REMARK    3  A    between atoms: _22  and  _66
REMARK    4  A    between atoms: _27  and  _30
REMARK    5  A    between atoms: _32  and  _33
REMARK    6  A    between atoms: _38  and  _43
REMARK    7  A    between atoms: _43  and  _46
REMARK    8  A    between atoms: _53  and  _55
REMARK                            x       y       z     vdW  Elec       q    Type
REMARK                         _______ _______ _______ _____ _____    ______ ____
ROOT
ATOM     10  C   UNL     1       4.768   3.679  -6.714  0.00  0.00    +0.038 A 
ATOM     11  C   UNL     1       4.189   3.149  -7.895  0.00  0.00    +0.047 A 
ATOM     12  C   UNL     1       3.886   4.002  -9.033  0.00  0.00    +0.035 A 
ATOM     32  C   UNL     1       4.189   5.391  -8.936  0.00  0.00    +0.024 A 
ATOM     33  C   UNL     1       4.777   5.948  -7.743  0.00  0.00    +0.007 A 
ATOM     34  C   UNL     1       5.076   5.111  -6.616  0.00  0.00    -0.029 A 
ATOM     35  C   UNL     1       5.700   5.763  -5.360  0.00  0.00    +0.045 C 
ENDROOT
BRANCH  10   9
ATOM      4  C   UNL     1       3.520   1.442  -2.655  0.00  0.00    +0.077 A 
ATOM      5  C   UNL     1       2.230   2.070  -2.636  0.00  0.00    +0.048 A 
ATOM      6  C   UNL     1       1.930   2.968  -3.685  0.00  0.00    +0.116 A 
ATOM      7  N   UNL     1       2.858   3.211  -4.675  0.00  0.00    -0.223 NA
ATOM      8  C   UNL     1       4.093   2.590  -4.662  0.00  0.00    +0.220 A 
ATOM      9  N   UNL     1       5.039   2.814  -5.651  0.00  0.00    -0.283 N 
ATOM     36  H   UNL     1       5.941   2.343  -5.602  0.00  0.00    +0.155 HD
ATOM     37  N   UNL     1       4.405   1.730  -3.671  0.00  0.00    -0.214 NA
BRANCH   4   3
ATOM      1  C   UNL     1       5.784  -0.797  -0.384  0.00  0.00    +0.020 A 
ATOM      2  C   UNL     1       5.390   0.152  -1.399  0.00  0.00    +0.013 A 
ATOM      3  C   UNL     1       3.984   0.467  -1.618  0.00  0.00    +0.019 A 
ATOM     38  C   UNL     1       2.994  -0.200  -0.785  0.00  0.00    +0.120 A 
ATOM     39  N   UNL     1       3.404  -1.110   0.184  0.00  0.00    -0.263 NA
ATOM     40  C   UNL     1       4.754  -1.423   0.402  0.00  0.00    +0.111 A 
ENDBRANCH   4   3
ENDBRANCH  10   9
BRANCH  12  13
ATOM     13  N   UNL     1       3.290   3.521 -10.255  0.00  0.00    -0.281 N 
ATOM     14  C   UNL     1       1.959   3.580 -10.635  0.00  0.00    +0.248 C 
ATOM     30  O   UNL     1       1.039   3.866  -9.884  0.00  0.00    -0.270 OA
ATOM     31  H   UNL     1       3.927   3.084 -10.921  0.00  0.00    +0.155 HD
BRANCH  14  15
ATOM     15  C   UNL     1       1.597   3.262 -12.049  0.00  0.00    +0.037 A 
ATOM     16  C   UNL     1       0.199   3.109 -12.459  0.00  0.00    +0.013 A 
ATOM     17  C   UNL     1      -0.123   2.785 -13.827  0.00  0.00    +0.005 A 
ATOM     18  C   UNL     1       0.958   2.613 -14.795  0.00  0.00    -0.033 A 
ATOM     28  C   UNL     1       2.336   2.777 -14.362  0.00  0.00    +0.005 A 
ATOM     29  C   UNL     1       2.655   3.093 -13.023  0.00  0.00    +0.013 A 
BRANCH  18  19
ATOM     19  C   UNL     1       0.709   2.246 -16.270  0.00  0.00    +0.119 C 
BRANCH  19  20
ATOM     20  N   UNL     1       0.207   3.329 -17.169  0.00  0.00    -0.302 NA
ATOM     21  C   UNL     1       0.242   2.914 -18.642  0.00  0.00    +0.066 C 
ATOM     22  C   UNL     1      -0.307   4.049 -19.566  0.00  0.00    -0.064 C 
ATOM     23  N   UNL     1       0.509   5.323 -19.343  0.00  0.00    +0.379 N 
ATOM     24  C   UNL     1       0.033   6.376 -20.252  0.00  0.00    -0.096 C 
ATOM     25  H   UNL     1       1.567   5.098 -19.611  0.00  0.00    -0.082 HD
ATOM     26  C   UNL     1       0.482   5.742 -17.880  0.00  0.00    -0.064 C 
ATOM     27  C   UNL     1       1.002   4.595 -16.968  0.00  0.00    +0.066 C 
ENDBRANCH  19  20
ENDBRANCH  18  19
ENDBRANCH  14  15
ENDBRANCH  12  13
TORSDOF 6
ENDMDL
MODEL 5
REMARK VINA RESULT:      -7.5      2.868     13.341
REMARK  Name = C:\Users\Docking\Desktop\test protocol\1iep_ligandH.pdb
REMARK  8 active torsions:
REMARK  status: ('A' for Active; 'I' for Inactive)
REMARK    1  A    between atoms: _5  and  _11
REMARK    2  A    between atoms: _19  and  _21
REMARK    3  A    between atoms: _22  and  _66
REMARK    4  A    between atoms: _27  and  _30
REMARK    5  A    between atoms: _32  and  _33
REMARK    6  A    between atoms: _38  and  _43
REMARK    7  A    between atoms: _43  and  _46
REMARK    8  A    between atoms: _53  and  _55
REMARK                            x       y       z     vdW  Elec       q    Type
REMARK                         _______ _______ _______ _____ _____    ______ ____
ROOT
ATOM     10  C   UNL     1      19.626   6.495 -27.717  0.00  0.00    +0.038 A 
ATOM     11  C   UNL     1      18.875   7.107 -26.681  0.00  0.00    +0.047 A 
ATOM     12  C   UNL     1      18.542   8.522 -26.728  0.00  0.00    +0.035 A 
ATOM     32  C   UNL     1      18.987   9.284 -27.848  0.00  0.00    +0.024 A 
ATOM     33  C   UNL     1      19.752   8.678 -28.909  0.00  0.00    +0.007 A 
ATOM     34  C   UNL     1      20.086   7.283 -28.867  0.00  0.00    -0.029 A 
ATOM     35  C   UNL     1      20.914   6.689 -30.030  0.00  0.00    +0.045 C 
ENDROOT
BRANCH  10   9
ATOM      4  C   UNL     1      22.343   2.846 -26.188  0.00  0.00    +0.077 A 
ATOM      5  C   UNL     1      23.276   3.730 -25.550  0.00  0.00    +0.048 A 
ATOM      6  C   UNL     1      23.024   5.117 -25.645  0.00  0.00    +0.116 A 
ATOM      7  N   UNL     1      21.918   5.575 -26.329  0.00  0.00    -0.223 NA
ATOM      8  C   UNL     1      21.040   4.695 -26.934  0.00  0.00    +0.220 A 
ATOM      9  N   UNL     1      19.918   5.132 -27.621  0.00  0.00    -0.283 N 
ATOM     36  H   UNL     1      19.298   4.452 -28.060  0.00  0.00    +0.155 HD
ATOM     37  N   UNL     1      21.259   3.366 -26.859  0.00  0.00    -0.214 NA
BRANCH   4   3
ATOM      1  C   UNL     1      21.722  -0.961 -26.838  0.00  0.00    +0.020 A 
ATOM      2  C   UNL     1      21.553   0.474 -26.884  0.00  0.00    +0.013 A 
ATOM      3  C   UNL     1      22.472   1.355 -26.174  0.00  0.00    +0.019 A 
ATOM     38  C   UNL     1      23.558   0.748 -25.420  0.00  0.00    +0.120 A 
ATOM     39  N   UNL     1      23.695  -0.637 -25.393  0.00  0.00    -0.263 NA
ATOM     40  C   UNL     1      22.816  -1.495 -26.071  0.00  0.00    +0.111 A 
ENDBRANCH   4   3
ENDBRANCH  10   9
BRANCH  12  13
ATOM     13  N   UNL     1      17.789   9.200 -25.702  0.00  0.00    -0.281 N 
ATOM     14  C   UNL     1      18.214   9.563 -24.434  0.00  0.00    +0.248 C 
ATOM     30  O   UNL     1      19.245   9.167 -23.911  0.00  0.00    -0.270 OA
ATOM     31  H   UNL     1      16.827   9.441 -25.939  0.00  0.00    +0.155 HD
BRANCH  14  15
ATOM     15  C   UNL     1      17.363  10.487 -23.625  0.00  0.00    +0.037 A 
ATOM     16  C   UNL     1      16.041  10.078 -23.144  0.00  0.00    +0.013 A 
ATOM     17  C   UNL     1      15.233  10.996 -22.380  0.00  0.00    +0.005 A 
ATOM     18  C   UNL     1      15.747  12.333 -22.091  0.00  0.00    -0.033 A 
ATOM     28  C   UNL     1      17.064  12.710 -22.576  0.00  0.00    +0.005 A 
ATOM     29  C   UNL     1      17.858  11.814 -23.326  0.00  0.00    +0.013 A 
BRANCH  18  19
ATOM     19  C   UNL     1      14.946  13.384 -21.301  0.00  0.00    +0.119 C 
BRANCH  19  20
ATOM     20  N   UNL     1      13.473  13.442 -21.539  0.00  0.00    -0.302 NA
ATOM     21  C   UNL     1      13.136  14.010 -22.921  0.00  0.00    +0.066 C 
ATOM     22  C   UNL     1      11.592  14.043 -23.162  0.00  0.00    -0.064 C 
ATOM     23  N   UNL     1      10.923  14.866 -22.060  0.00  0.00    +0.379 N 
ATOM     24  C   UNL     1       9.478  14.947 -22.316  0.00  0.00    -0.096 C 
ATOM     25  H   UNL     1      11.335  15.901 -22.114  0.00  0.00    -0.082 HD
ATOM     26  C   UNL     1      11.255  14.309 -20.683  0.00  0.00    -0.064 C 
ATOM     27  C   UNL     1      12.793  14.254 -20.465  0.00  0.00    +0.066 C 
ENDBRANCH  19  20
ENDBRANCH  18  19
ENDBRANCH  14  15
ENDBRANCH  12  13
TORSDOF 6
ENDMDL
