MODEL 1
REMARK VINA RESULT:      -7.6      0.000      0.000
REMARK  Name = C:\Users\Docking\Desktop\test protocol\1iep_ligandH.pdb
REMARK  8 active torsions:
REMARK  status: ('A' for Active; 'I' for Inactive)
REMARK    1  A    between atoms: _5  and  _11
REMARK    2  A    between atoms: _19  and  _21
REMARK    3  A    between atoms: _22  and  _66
REMARK    4  A    between atoms: _27  and  _30
REMARK    5  A    between atoms: _32  and  _33
REMARK    6  A    between atoms: _38  and  _43
REMARK    7  A    between atoms: _43  and  _46
REMARK    8  A    between atoms: _53  and  _55
REMARK                            x       y       z     vdW  Elec       q    Type
REMARK                         _______ _______ _______ _____ _____    ______ ____
ROOT
ATOM     10  C   UNL     1      11.859  23.885  24.698  0.00  0.00    +0.038 A 
ATOM     11  C   UNL     1      11.655  25.015  23.866  0.00  0.00    +0.047 A 
ATOM     12  C   UNL     1      10.849  26.141  24.310  0.00  0.00    +0.035 A 
ATOM     32  C   UNL     1      10.267  26.084  25.610  0.00  0.00    +0.024 A 
ATOM     33  C   UNL     1      10.463  24.943  26.469  0.00  0.00    +0.007 A 
ATOM     34  C   UNL     1      11.255  23.828  26.035  0.00  0.00    -0.029 A 
ATOM     35  C   UNL     1      11.426  22.627  26.995  0.00  0.00    +0.045 C 
ENDROOT
BRANCH  10   9
ATOM      4  C   UNL     1      16.088  21.706  24.059  0.00  0.00    +0.077 A 
ATOM      5  C   UNL     1      16.800  22.769  24.708  0.00  0.00    +0.048 A 
ATOM      6  C   UNL     1      16.042  23.861  25.185  0.00  0.00    +0.116 A 
ATOM      7  N   UNL     1      14.674  23.879  25.021  0.00  0.00    -0.223 NA
ATOM      8  C   UNL     1      14.018  22.838  24.390  0.00  0.00    +0.220 A 
ATOM      9  N   UNL     1      12.642  22.831  24.221  0.00  0.00    -0.283 N 
ATOM     36  H   UNL     1      12.197  22.048  23.743  0.00  0.00    +0.155 HD
ATOM     37  N   UNL     1      14.720  21.784  23.923  0.00  0.00    -0.214 NA
BRANCH   4   3
ATOM      1  C   UNL     1      17.715  19.128  21.608  0.00  0.00    +0.020 A 
ATOM      2  C   UNL     1      17.077  20.331  22.093  0.00  0.00    +0.013 A 
ATOM      3  C   UNL     1      16.748  20.482  23.504  0.00  0.00    +0.019 A 
ATOM     38  C   UNL     1      17.081  19.390  24.407  0.00  0.00    +0.120 A 
ATOM     39  N   UNL     1      17.693  18.243  23.911  0.00  0.00    -0.263 NA
ATOM     40  C   UNL     1      18.014  18.086  22.554  0.00  0.00    +0.111 A 
ENDBRANCH   4   3
ENDBRANCH  10   9
BRANCH  12  13
ATOM     13  N   UNL     1      10.601  27.312  23.506  0.00  0.00    -0.281 N 
ATOM     14  C   UNL     1      11.511  28.273  23.097  0.00  0.00    +0.248 C 
ATOM     30  O   UNL     1      12.644  28.386  23.543  0.00  0.00    -0.270 OA
ATOM     31  H   UNL     1       9.637  27.449  23.201  0.00  0.00    +0.155 HD
BRANCH  14  15
ATOM     15  C   UNL     1      11.099  29.261  22.054  0.00  0.00    +0.037 A 
ATOM     16  C   UNL     1      11.334  29.005  20.630  0.00  0.00    +0.013 A 
ATOM     17  C   UNL     1      10.942  29.981  19.646  0.00  0.00    +0.005 A 
ATOM     18  C   UNL     1      10.309  31.224  20.081  0.00  0.00    -0.033 A 
ATOM     28  C   UNL     1      10.083  31.450  21.499  0.00  0.00    +0.005 A 
ATOM     29  C   UNL     1      10.467  30.495  22.468  0.00  0.00    +0.013 A 
BRANCH  18  19
ATOM     19  C   UNL     1       9.877  32.331  19.102  0.00  0.00    +0.119 C 
BRANCH  19  20
ATOM     20  N   UNL     1       8.411  32.539  18.908  0.00  0.00    -0.302 NA
ATOM     21  C   UNL     1       8.016  32.496  17.429  0.00  0.00    +0.066 C 
ATOM     22  C   UNL     1       6.476  32.693  17.246  0.00  0.00    -0.064 C 
ATOM     23  N   UNL     1       6.055  34.019  17.881  0.00  0.00    +0.379 N 
ATOM     24  C   UNL     1       4.617  34.234  17.660  0.00  0.00    -0.096 C 
ATOM     25  H   UNL     1       6.604  34.835  17.356  0.00  0.00    -0.082 HD
ATOM     26  C   UNL     1       6.446  34.071  19.351  0.00  0.00    -0.064 C 
ATOM     27  C   UNL     1       7.974  33.845  19.524  0.00  0.00    +0.066 C 
ENDBRANCH  19  20
ENDBRANCH  18  19
ENDBRANCH  14  15
ENDBRANCH  12  13
TORSDOF 6
ENDMDL
MODEL 2
REMARK VINA RESULT:      -7.0     17.516     21.281
REMARK  Name = C:\Users\Docking\Desktop\test protocol\1iep_ligandH.pdb
REMARK  8 active torsions:
REMARK  status: ('A' for Active; 'I' for Inactive)
REMARK    1  A    between atoms: _5  and  _11
REMARK    2  A    between atoms: _19  and  _21
REMARK    3  A    between atoms: _22  and  _66
REMARK    4  A    between atoms: _27  and  _30
REMARK    5  A    between atoms: _32  and  _33
REMARK    6  A    between atoms: _38  and  _43
REMARK    7  A    between atoms: _43  and  _46
REMARK    8  A    between atoms: _53  and  _55
REMARK                            x       y       z     vdW  Elec       q    Type
REMARK                         _______ _______ _______ _____ _____    ______ ____
ROOT
ATOM     10  C   UNL     1      -0.006  13.369  21.768  0.00  0.00    +0.038 A 
ATOM     11  C   UNL     1       1.263  12.848  21.405  0.00  0.00    +0.047 A 
ATOM     12  C   UNL     1       2.126  12.216  22.391  0.00  0.00    +0.035 A 
ATOM     32  C   UNL     1       1.665  12.129  23.737  0.00  0.00    +0.024 A 
ATOM     33  C   UNL     1       0.379  12.654  24.123  0.00  0.00    +0.007 A 
ATOM     34  C   UNL     1      -0.476  13.281  23.156  0.00  0.00    -0.029 A 
ATOM     35  C   UNL     1      -1.842  13.832  23.627  0.00  0.00    +0.045 C 
ENDROOT
BRANCH  10   9
ATOM      4  C   UNL     1      -2.873  13.136  17.925  0.00  0.00    +0.077 A 
ATOM      5  C   UNL     1      -2.770  11.706  17.862  0.00  0.00    +0.048 A 
ATOM      6  C   UNL     1      -1.964  11.070  18.833  0.00  0.00    +0.116 A 
ATOM      7  N   UNL     1      -1.314  11.817  19.791  0.00  0.00    -0.223 NA
ATOM      8  C   UNL     1      -1.432  13.195  19.822  0.00  0.00    +0.220 A 
ATOM      9  N   UNL     1      -0.794  13.966  20.781  0.00  0.00    -0.283 N 
ATOM     36  H   UNL     1      -0.901  14.980  20.766  0.00  0.00    +0.155 HD
ATOM     37  N   UNL     1      -2.195  13.826  18.906  0.00  0.00    -0.214 NA
BRANCH   4   3
ATOM      1  C   UNL     1      -4.029  15.934  15.449  0.00  0.00    +0.020 A 
ATOM      2  C   UNL     1      -3.200  15.183  16.364  0.00  0.00    +0.013 A 
ATOM      3  C   UNL     1      -3.689  13.952  16.972  0.00  0.00    +0.019 A 
ATOM     38  C   UNL     1      -5.030  13.504  16.630  0.00  0.00    +0.120 A 
ATOM     39  N   UNL     1      -5.806  14.248  15.746  0.00  0.00    -0.263 NA
ATOM     40  C   UNL     1      -5.347  15.436  15.157  0.00  0.00    +0.111 A 
ENDBRANCH   4   3
ENDBRANCH  10   9
BRANCH  12  13
ATOM     13  N   UNL     1       3.427  11.676  22.083  0.00  0.00    -0.281 N 
ATOM     14  C   UNL     1       3.755  10.366  21.777  0.00  0.00    +0.248 C 
ATOM     30  O   UNL     1       3.007   9.412  21.932  0.00  0.00    -0.270 OA
ATOM     31  H   UNL     1       4.201  12.342  22.092  0.00  0.00    +0.155 HD
BRANCH  14  15
ATOM     15  C   UNL     1       5.116  10.069  21.235  0.00  0.00    +0.037 A 
ATOM     16  C   UNL     1       5.590  10.686  19.993  0.00  0.00    +0.013 A 
ATOM     17  C   UNL     1       6.900  10.370  19.483  0.00  0.00    +0.005 A 
ATOM     18  C   UNL     1       7.747   9.432  20.217  0.00  0.00    -0.033 A 
ATOM     28  C   UNL     1       7.254   8.839  21.448  0.00  0.00    +0.005 A 
ATOM     29  C   UNL     1       5.970   9.146  21.951  0.00  0.00    +0.013 A 
BRANCH  18  19
ATOM     19  C   UNL     1       9.151   9.021  19.735  0.00  0.00    +0.119 C 
BRANCH  19  20
ATOM     20  N   UNL     1       9.508   9.336  18.320  0.00  0.00    -0.302 NA
ATOM     21  C   UNL     1       9.128   8.201  17.365  0.00  0.00    +0.066 C 
ATOM     22  C   UNL     1       9.488   8.557  15.886  0.00  0.00    -0.064 C 
ATOM     23  N   UNL     1      10.982   8.868  15.788  0.00  0.00    +0.379 N 
ATOM     24  C   UNL     1      11.335   9.147  14.388  0.00  0.00    -0.096 C 
ATOM     25  H   UNL     1      11.539   7.955  16.102  0.00  0.00    -0.082 HD
ATOM     26  C   UNL     1      11.370   9.994  16.736  0.00  0.00    -0.064 C 
ATOM     27  C   UNL     1      10.981   9.643  18.200  0.00  0.00    +0.066 C 
ENDBRANCH  19  20
ENDBRANCH  18  19
ENDBRANCH  14  15
ENDBRANCH  12  13
TORSDOF 6
ENDMDL
MODEL 3
REMARK VINA RESULT:      -6.9      4.020      8.896
REMARK  Name = C:\Users\Docking\Desktop\test protocol\1iep_ligandH.pdb
REMARK  8 active torsions:
REMARK  status: ('A' for Active; 'I' for Inactive)
REMARK    1  A    between atoms: _5  and  _11
REMARK    2  A    between atoms: _19  and  _21
REMARK    3  A    between atoms: _22  and  _66
REMARK    4  A    between atoms: _27  and  _30
REMARK    5  A    between atoms: _32  and  _33
REMARK    6  A    between atoms: _38  and  _43
REMARK    7  A    between atoms: _43  and  _46
REMARK    8  A    between atoms: _53  and  _55
REMARK                            x       y       z     vdW  Elec       q    Type
REMARK                         _______ _______ _______ _____ _____    ______ ____
ROOT
ATOM     10  C   UNL     1      10.675  30.954  19.463  0.00  0.00    +0.038 A 
ATOM     11  C   UNL     1       9.304  31.317  19.464  0.00  0.00    +0.047 A 
ATOM     12  C   UNL     1       8.838  32.498  18.754  0.00  0.00    +0.035 A 
ATOM     32  C   UNL     1       9.796  33.285  18.051  0.00  0.00    +0.024 A 
ATOM     33  C   UNL     1      11.194  32.931  18.040  0.00  0.00    +0.007 A 
ATOM     34  C   UNL     1      11.660  31.769  18.741  0.00  0.00    -0.029 A 
ATOM     35  C   UNL     1      13.170  31.441  18.701  0.00  0.00    +0.045 C 
ENDROOT
BRANCH  10   9
ATOM      4  C   UNL     1      11.239  28.459  23.524  0.00  0.00    +0.077 A 
ATOM      5  C   UNL     1      10.734  29.536  24.326  0.00  0.00    +0.048 A 
ATOM      6  C   UNL     1      10.347  30.718  23.655  0.00  0.00    +0.116 A 
ATOM      7  N   UNL     1      10.460  30.804  22.284  0.00  0.00    -0.223 NA
ATOM      8  C   UNL     1      10.952  29.747  21.541  0.00  0.00    +0.220 A 
ATOM      9  N   UNL     1      11.067  29.809  20.161  0.00  0.00    -0.283 N 
ATOM     36  H   UNL     1      11.442  29.011  19.650  0.00  0.00    +0.155 HD
ATOM     37  N   UNL     1      11.330  28.608  22.159  0.00  0.00    -0.214 NA
BRANCH   4   3
ATOM      1  C   UNL     1      11.260  24.776  24.843  0.00  0.00    +0.020 A 
ATOM      2  C   UNL     1      10.778  26.024  24.297  0.00  0.00    +0.013 A 
ATOM      3  C   UNL     1      11.685  27.145  24.087  0.00  0.00    +0.019 A 
ATOM     38  C   UNL     1      13.086  26.969  24.440  0.00  0.00    +0.120 A 
ATOM     39  N   UNL     1      13.521  25.756  24.965  0.00  0.00    -0.263 NA
ATOM     40  C   UNL     1      12.657  24.671  25.174  0.00  0.00    +0.111 A 
ENDBRANCH   4   3
ENDBRANCH  10   9
BRANCH  12  13
ATOM     13  N   UNL     1       7.460  32.921  18.726  0.00  0.00    -0.281 N 
ATOM     14  C   UNL     1       6.560  32.822  17.678  0.00  0.00    +0.248 C 
ATOM     30  O   UNL     1       6.867  32.547  16.527  0.00  0.00    -0.270 OA
ATOM     31  H   UNL     1       7.105  33.344  19.583  0.00  0.00    +0.155 HD
BRANCH  14  15
ATOM     15  C   UNL     1       5.112  33.080  17.943  0.00  0.00    +0.037 A 
ATOM     16  C   UNL     1       4.076  32.164  17.457  0.00  0.00    +0.013 A 
ATOM     17  C   UNL     1       2.685  32.445  17.712  0.00  0.00    +0.005 A 
ATOM     18  C   UNL     1       2.323  33.648  18.458  0.00  0.00    -0.033 A 
ATOM     28  C   UNL     1       3.371  34.536  18.932  0.00  0.00    +0.005 A 
ATOM     29  C   UNL     1       4.735  34.264  18.684  0.00  0.00    +0.013 A 
BRANCH  18  19
ATOM     19  C   UNL     1       0.863  34.038  18.758  0.00  0.00    +0.119 C 
BRANCH  19  20
ATOM     20  N   UNL     1       0.626  34.983  19.889  0.00  0.00    -0.302 NA
ATOM     21  C   UNL     1      -0.008  34.287  21.096  0.00  0.00    +0.066 C 
ATOM     22  C   UNL     1      -0.228  35.286  22.279  0.00  0.00    -0.064 C 
ATOM     23  N   UNL     1      -1.100  36.450  21.804  0.00  0.00    +0.379 N 
ATOM     24  C   UNL     1      -1.357  37.361  22.929  0.00  0.00    -0.096 C 
ATOM     25  H   UNL     1      -2.080  36.028  21.480  0.00  0.00    -0.082 HD
ATOM     26  C   UNL     1      -0.478  37.146  20.602  0.00  0.00    -0.064 C 
ATOM     27  C   UNL     1      -0.236  36.138  19.443  0.00  0.00    +0.066 C 
ENDBRANCH  19  20
ENDBRANCH  18  19
ENDBRANCH  14  15
ENDBRANCH  12  13
TORSDOF 6
ENDMDL
MODEL 4
REMARK VINA RESULT:      -6.7      1.842      2.712
REMARK  Name = C:\Users\Docking\Desktop\test protocol\1iep_ligandH.pdb
REMARK  8 active torsions:
REMARK  status: ('A' for Active; 'I' for Inactive)
REMARK    1  A    between atoms: _5  and  _11
REMARK    2  A    between atoms: _19  and  _21
REMARK    3  A    between atoms: _22  and  _66
REMARK    4  A    between atoms: _27  and  _30
REMARK    5  A    between atoms: _32  and  _33
REMARK    6  A    between atoms: _38  and  _43
REMARK    7  A    between atoms: _43  and  _46
REMARK    8  A    between atoms: _53  and  _55
REMARK                            x       y       z     vdW  Elec       q    Type
REMARK                         _______ _______ _______ _____ _____    ______ ____
ROOT
ATOM     10  C   UNL     1      11.666  24.036  24.756  0.00  0.00    +0.038 A 
ATOM     11  C   UNL     1      11.531  25.105  23.834  0.00  0.00    +0.047 A 
ATOM     12  C   UNL     1      10.733  26.279  24.154  0.00  0.00    +0.035 A 
ATOM     32  C   UNL     1      10.088  26.331  25.424  0.00  0.00    +0.024 A 
ATOM     33  C   UNL     1      10.213  25.252  26.373  0.00  0.00    +0.007 A 
ATOM     34  C   UNL     1      10.997  24.091  26.061  0.00  0.00    -0.029 A 
ATOM     35  C   UNL     1      11.091  22.962  27.114  0.00  0.00    +0.045 C 
ENDROOT
BRANCH  10   9
ATOM      4  C   UNL     1      15.904  21.896  24.051  0.00  0.00    +0.077 A 
ATOM      5  C   UNL     1      16.628  23.083  24.403  0.00  0.00    +0.048 A 
ATOM      6  C   UNL     1      15.873  24.225  24.753  0.00  0.00    +0.116 A 
ATOM      7  N   UNL     1      14.496  24.172  24.747  0.00  0.00    -0.223 NA
ATOM      8  C   UNL     1      13.828  23.011  24.401  0.00  0.00    +0.220 A 
ATOM      9  N   UNL     1      12.444  22.933  24.396  0.00  0.00    -0.283 N 
ATOM     36  H   UNL     1      11.989  22.061  24.128  0.00  0.00    +0.155 HD
ATOM     37  N   UNL     1      14.527  21.908  24.062  0.00  0.00    -0.214 NA
BRANCH   4   3
ATOM      1  C   UNL     1      17.535  18.344  24.198  0.00  0.00    +0.020 A 
ATOM      2  C   UNL     1      16.902  19.570  24.626  0.00  0.00    +0.013 A 
ATOM      3  C   UNL     1      16.560  20.608  23.662  0.00  0.00    +0.019 A 
ATOM     38  C   UNL     1      16.874  20.372  22.261  0.00  0.00    +0.120 A 
ATOM     39  N   UNL     1      17.485  19.182  21.878  0.00  0.00    -0.263 NA
ATOM     40  C   UNL     1      17.820  18.177  22.797  0.00  0.00    +0.111 A 
ENDBRANCH   4   3
ENDBRANCH  10   9
BRANCH  12  13
ATOM     13  N   UNL     1      10.553  27.392  23.256  0.00  0.00    -0.281 N 
ATOM     14  C   UNL     1      11.514  28.277  22.794  0.00  0.00    +0.248 C 
ATOM     30  O   UNL     1      12.641  28.376  23.254  0.00  0.00    -0.270 OA
ATOM     31  H   UNL     1       9.603  27.546  22.919  0.00  0.00    +0.155 HD
BRANCH  14  15
ATOM     15  C   UNL     1      11.167  29.195  21.667  0.00  0.00    +0.037 A 
ATOM     16  C   UNL     1      10.505  30.480  21.909  0.00  0.00    +0.013 A 
ATOM     17  C   UNL     1      10.166  31.340  20.803  0.00  0.00    +0.005 A 
ATOM     18  C   UNL     1      10.490  30.917  19.443  0.00  0.00    -0.033 A 
ATOM     28  C   UNL     1      11.151  29.640  19.231  0.00  0.00    +0.005 A 
ATOM     29  C   UNL     1      11.484  28.794  20.313  0.00  0.00    +0.013 A 
BRANCH  18  19
ATOM     19  C   UNL     1      10.146  31.760  18.201  0.00  0.00    +0.119 C 
BRANCH  19  20
ATOM     20  N   UNL     1      10.686  33.151  18.148  0.00  0.00    -0.302 NA
ATOM     21  C   UNL     1      10.217  33.903  16.899  0.00  0.00    +0.066 C 
ATOM     22  C   UNL     1      10.773  35.364  16.871  0.00  0.00    -0.064 C 
ATOM     23  N   UNL     1      12.301  35.327  16.940  0.00  0.00    +0.379 N 
ATOM     24  C   UNL     1      12.829  36.696  16.855  0.00  0.00    -0.096 C 
ATOM     25  H   UNL     1      12.666  34.768  16.047  0.00  0.00    -0.082 HD
ATOM     26  C   UNL     1      12.775  34.579  18.178  0.00  0.00    -0.064 C 
ATOM     27  C   UNL     1      12.193  33.138  18.210  0.00  0.00    +0.066 C 
ENDBRANCH  19  20
ENDBRANCH  18  19
ENDBRANCH  14  15
ENDBRANCH  12  13
TORSDOF 6
ENDMDL
MODEL 5
REMARK VINA RESULT:      -6.6     20.876     26.642
REMARK  Name = C:\Users\Docking\Desktop\test protocol\1iep_ligandH.pdb
REMARK  8 active torsions:
REMARK  status: ('A' for Active; 'I' for Inactive)
REMARK    1  A    between atoms: _5  and  _11
REMARK    2  A    between atoms: _19  and  _21
REMARK    3  A    between atoms: _22  and  _66
REMARK    4  A    between atoms: _27  and  _30
REMARK    5  A    between atoms: _32  and  _33
REMARK    6  A    between atoms: _38  and  _43
REMARK    7  A    between atoms: _43  and  _46
REMARK    8  A    between atoms: _53  and  _55
REMARK                            x       y       z     vdW  Elec       q    Type
REMARK                         _______ _______ _______ _____ _____    ______ ____
ROOT
ATOM     10  C   UNL     1      -8.179  40.448  23.481  0.00  0.00    +0.038 A 
ATOM     11  C   UNL     1      -8.878  39.373  24.088  0.00  0.00    +0.047 A 
ATOM     12  C   UNL     1     -10.032  39.612  24.940  0.00  0.00    +0.035 A 
ATOM     32  C   UNL     1     -10.450  40.958  25.150  0.00  0.00    +0.024 A 
ATOM     33  C   UNL     1      -9.751  42.063  24.542  0.00  0.00    +0.007 A 
ATOM     34  C   UNL     1      -8.610  41.834  23.703  0.00  0.00    -0.029 A 
ATOM     35  C   UNL     1      -7.895  43.056  23.082  0.00  0.00    +0.045 C 
ENDROOT
BRANCH  10   9
ATOM      4  C   UNL     1      -6.184  39.542  19.211  0.00  0.00    +0.077 A 
ATOM      5  C   UNL     1      -7.448  39.620  18.537  0.00  0.00    +0.048 A 
ATOM      6  C   UNL     1      -8.589  39.888  19.327  0.00  0.00    +0.116 A 
ATOM      7  N   UNL     1      -8.462  40.064  20.688  0.00  0.00    -0.223 NA
ATOM      8  C   UNL     1      -7.228  39.980  21.307  0.00  0.00    +0.220 A 
ATOM      9  N   UNL     1      -7.077  40.161  22.673  0.00  0.00    -0.283 N 
ATOM     36  H   UNL     1      -6.150  40.084  23.092  0.00  0.00    +0.155 HD
ATOM     37  N   UNL     1      -6.124  39.724  20.575  0.00  0.00    -0.214 NA
BRANCH   4   3
ATOM      1  C   UNL     1      -2.845  37.859  18.061  0.00  0.00    +0.020 A 
ATOM      2  C   UNL     1      -4.090  38.075  18.763  0.00  0.00    +0.013 A 
ATOM      3  C   UNL     1      -4.888  39.269  18.513  0.00  0.00    +0.019 A 
ATOM     38  C   UNL     1      -4.395  40.232  17.540  0.00  0.00    +0.120 A 
ATOM     39  N   UNL     1      -3.192  39.998  16.881  0.00  0.00    -0.263 NA
ATOM     40  C   UNL     1      -2.414  38.853  17.114  0.00  0.00    +0.111 A 
ENDBRANCH   4   3
ENDBRANCH  10   9
BRANCH  12  13
ATOM     13  N   UNL     1     -10.776  38.561  25.590  0.00  0.00    -0.281 N 
ATOM     14  C   UNL     1     -10.577  38.033  26.855  0.00  0.00    +0.248 C 
ATOM     30  O   UNL     1      -9.588  38.240  27.542  0.00  0.00    -0.270 OA
ATOM     31  H   UNL     1     -11.543  38.158  25.051  0.00  0.00    +0.155 HD
BRANCH  14  15
ATOM     15  C   UNL     1     -11.621  37.135  27.435  0.00  0.00    +0.037 A 
ATOM     16  C   UNL     1     -13.002  37.590  27.612  0.00  0.00    +0.013 A 
ATOM     17  C   UNL     1     -13.986  36.709  28.190  0.00  0.00    +0.005 A 
ATOM     18  C   UNL     1     -13.591  35.362  28.594  0.00  0.00    -0.033 A 
ATOM     28  C   UNL     1     -12.215  34.934  28.402  0.00  0.00    +0.005 A 
ATOM     29  C   UNL     1     -11.248  35.795  27.836  0.00  0.00    +0.013 A 
BRANCH  18  19
ATOM     19  C   UNL     1     -14.569  34.361  29.238  0.00  0.00    +0.119 C 
BRANCH  19  20
ATOM     20  N   UNL     1     -14.776  33.059  28.536  0.00  0.00    -0.302 NA
ATOM     21  C   UNL     1     -15.891  33.143  27.490  0.00  0.00    +0.066 C 
ATOM     22  C   UNL     1     -16.080  31.779  26.749  0.00  0.00    -0.064 C 
ATOM     23  N   UNL     1     -16.379  30.683  27.773  0.00  0.00    +0.379 N 
ATOM     24  C   UNL     1     -16.615  29.410  27.076  0.00  0.00    -0.096 C 
ATOM     25  H   UNL     1     -17.323  30.960  28.299  0.00  0.00    -0.082 HD
ATOM     26  C   UNL     1     -15.277  30.595  28.820  0.00  0.00    -0.064 C 
ATOM     27  C   UNL     1     -15.078  31.964  29.529  0.00  0.00    +0.066 C 
ENDBRANCH  19  20
ENDBRANCH  18  19
ENDBRANCH  14  15
ENDBRANCH  12  13
TORSDOF 6
ENDMDL
