MODEL 1
REMARK VINA RESULT:      -8.1      0.000      0.000
REMARK  Name = C:\Users\Docking\Desktop\test protocol\1iep_ligandH.pdb
REMARK  8 active torsions:
REMARK  status: ('A' for Active; 'I' for Inactive)
REMARK    1  A    between atoms: _5  and  _11
REMARK    2  A    between atoms: _19  and  _21
REMARK    3  A    between atoms: _22  and  _66
REMARK    4  A    between atoms: _27  and  _30
REMARK    5  A    between atoms: _32  and  _33
REMARK    6  A    between atoms: _38  and  _43
REMARK    7  A    between atoms: _43  and  _46
REMARK    8  A    between atoms: _53  and  _55
REMARK                            x       y       z     vdW  Elec       q    Type
REMARK                         _______ _______ _______ _____ _____    ______ ____
ROOT
ATOM     10  C   UNL     1       8.478  -1.890  -0.604  0.00  0.00    +0.038 A 
ATOM     11  C   UNL     1       9.091  -0.648  -0.298  0.00  0.00    +0.047 A 
ATOM     12  C   UNL     1       9.497   0.270  -1.351  0.00  0.00    +0.035 A 
ATOM     32  C   UNL     1       9.261  -0.107  -2.705  0.00  0.00    +0.024 A 
ATOM     33  C   UNL     1       8.640  -1.366  -3.034  0.00  0.00    +0.007 A 
ATOM     34  C   UNL     1       8.239  -2.277  -2.000  0.00  0.00    -0.029 A 
ATOM     35  C   UNL     1       7.584  -3.616  -2.411  0.00  0.00    +0.045 C 
ENDROOT
BRANCH  10   9
ATOM      4  C   UNL     1       9.385  -5.447   2.488  0.00  0.00    +0.077 A 
ATOM      5  C   UNL     1      10.697  -5.661   1.949  0.00  0.00    +0.048 A 
ATOM      6  C   UNL     1      11.098  -4.839   0.871  0.00  0.00    +0.116 A 
ATOM      7  N   UNL     1      10.242  -3.878   0.378  0.00  0.00    -0.223 NA
ATOM      8  C   UNL     1       8.982  -3.699   0.920  0.00  0.00    +0.220 A 
ATOM      9  N   UNL     1       8.108  -2.733   0.446  0.00  0.00    -0.283 N 
ATOM     36  H   UNL     1       7.185  -2.638   0.868  0.00  0.00    +0.155 HD
ATOM     37  N   UNL     1       8.576  -4.472   1.949  0.00  0.00    -0.214 NA
BRANCH   4   3
ATOM      1  C   UNL     1       8.323  -6.576   6.079  0.00  0.00    +0.020 A 
ATOM      2  C   UNL     1       8.885  -5.779   5.013  0.00  0.00    +0.013 A 
ATOM      3  C   UNL     1       8.820  -6.233   3.630  0.00  0.00    +0.019 A 
ATOM     38  C   UNL     1       8.172  -7.507   3.356  0.00  0.00    +0.120 A 
ATOM     39  N   UNL     1       7.640  -8.253   4.403  0.00  0.00    -0.263 NA
ATOM     40  C   UNL     1       7.699  -7.828   5.739  0.00  0.00    +0.111 A 
ENDBRANCH   4   3
ENDBRANCH  10   9
BRANCH  12  13
ATOM     13  N   UNL     1      10.132   1.541  -1.101  0.00  0.00    -0.281 N 
ATOM     14  C   UNL     1       9.529   2.742  -0.764  0.00  0.00    +0.248 C 
ATOM     30  O   UNL     1       8.328   2.957  -0.836  0.00  0.00    -0.270 OA
ATOM     31  H   UNL     1      11.148   1.557  -1.182  0.00  0.00    +0.155 HD
BRANCH  14  15
ATOM     15  C   UNL     1      10.386   3.872  -0.293  0.00  0.00    +0.037 A 
ATOM     16  C   UNL     1      10.078   4.594   0.944  0.00  0.00    +0.013 A 
ATOM     17  C   UNL     1      10.911   5.692   1.367  0.00  0.00    +0.005 A 
ATOM     18  C   UNL     1      12.062   6.074   0.551  0.00  0.00    -0.033 A 
ATOM     28  C   UNL     1      12.346   5.337  -0.669  0.00  0.00    +0.005 A 
ATOM     29  C   UNL     1      11.531   4.261  -1.087  0.00  0.00    +0.013 A 
BRANCH  18  19
ATOM     19  C   UNL     1      12.992   7.246   0.914  0.00  0.00    +0.119 C 
BRANCH  19  20
ATOM     20  N   UNL     1      14.362   6.905   1.402  0.00  0.00    -0.302 NA
ATOM     21  C   UNL     1      14.407   6.746   2.924  0.00  0.00    +0.066 C 
ATOM     22  C   UNL     1      15.842   6.367   3.415  0.00  0.00    -0.064 C 
ATOM     23  N   UNL     1      16.834   7.436   2.954  0.00  0.00    +0.379 N 
ATOM     24  C   UNL     1      18.175   7.114   3.463  0.00  0.00    -0.096 C 
ATOM     25  H   UNL     1      16.523   8.405   3.409  0.00  0.00    -0.082 HD
ATOM     26  C   UNL     1      16.794   7.603   1.441  0.00  0.00    -0.064 C 
ATOM     27  C   UNL     1      15.357   7.950   0.961  0.00  0.00    +0.066 C 
ENDBRANCH  19  20
ENDBRANCH  18  19
ENDBRANCH  14  15
ENDBRANCH  12  13
TORSDOF 6
ENDMDL
MODEL 2
REMARK VINA RESULT:      -7.8      6.544      8.458
REMARK  Name = C:\Users\Docking\Desktop\test protocol\1iep_ligandH.pdb
REMARK  8 active torsions:
REMARK  status: ('A' for Active; 'I' for Inactive)
REMARK    1  A    between atoms: _5  and  _11
REMARK    2  A    between atoms: _19  and  _21
REMARK    3  A    between atoms: _22  and  _66
REMARK    4  A    between atoms: _27  and  _30
REMARK    5  A    between atoms: _32  and  _33
REMARK    6  A    between atoms: _38  and  _43
REMARK    7  A    between atoms: _43  and  _46
REMARK    8  A    between atoms: _53  and  _55
REMARK                            x       y       z     vdW  Elec       q    Type
REMARK                         _______ _______ _______ _____ _____    ______ ____
ROOT
ATOM     10  C   UNL     1       8.555  -5.689   1.884  0.00  0.00    +0.038 A 
ATOM     11  C   UNL     1       7.758  -4.518   1.960  0.00  0.00    +0.047 A 
ATOM     12  C   UNL     1       8.185  -3.276   1.335  0.00  0.00    +0.035 A 
ATOM     32  C   UNL     1       9.429  -3.263   0.638  0.00  0.00    +0.024 A 
ATOM     33  C   UNL     1      10.252  -4.444   0.552  0.00  0.00    +0.007 A 
ATOM     34  C   UNL     1       9.837  -5.672   1.169  0.00  0.00    -0.029 A 
ATOM     35  C   UNL     1      10.762  -6.905   1.051  0.00  0.00    +0.045 C 
ENDROOT
BRANCH  10   9
ATOM      4  C   UNL     1       7.787  -8.397   5.773  0.00  0.00    +0.077 A 
ATOM      5  C   UNL     1       8.373  -7.418   6.642  0.00  0.00    +0.048 A 
ATOM      6  C   UNL     1       8.867  -6.235   6.049  0.00  0.00    +0.116 A 
ATOM      7  N   UNL     1       8.776  -6.054   4.685  0.00  0.00    -0.223 NA
ATOM      8  C   UNL     1       8.206  -7.019   3.875  0.00  0.00    +0.220 A 
ATOM      9  N   UNL     1       8.096  -6.855   2.503  0.00  0.00    -0.283 N 
ATOM     36  H   UNL     1       7.676  -7.593   1.939  0.00  0.00    +0.155 HD
ATOM     37  N   UNL     1       7.728  -8.158   4.418  0.00  0.00    -0.214 NA
BRANCH   4   3
ATOM      1  C   UNL     1       6.117 -11.933   5.861  0.00  0.00    +0.020 A 
ATOM      2  C   UNL     1       6.654 -10.693   5.349  0.00  0.00    +0.013 A 
ATOM      3  C   UNL     1       7.217  -9.696   6.250  0.00  0.00    +0.019 A 
ATOM     38  C   UNL     1       7.224  -9.987   7.676  0.00  0.00    +0.120 A 
ATOM     39  N   UNL     1       6.698 -11.189   8.141  0.00  0.00    -0.263 NA
ATOM     40  C   UNL     1       6.152 -12.155   7.283  0.00  0.00    +0.111 A 
ENDBRANCH   4   3
ENDBRANCH  10   9
BRANCH  12  13
ATOM     13  N   UNL     1       7.423  -2.054   1.385  0.00  0.00    -0.281 N 
ATOM     14  C   UNL     1       6.047  -1.905   1.329  0.00  0.00    +0.248 C 
ATOM     30  O   UNL     1       5.268  -2.792   1.010  0.00  0.00    -0.270 OA
ATOM     31  H   UNL     1       7.963  -1.193   1.472  0.00  0.00    +0.155 HD
BRANCH  14  15
ATOM     15  C   UNL     1       5.450  -0.576   1.660  0.00  0.00    +0.037 A 
ATOM     16  C   UNL     1       6.175   0.670   1.398  0.00  0.00    +0.013 A 
ATOM     17  C   UNL     1       5.583   1.938   1.744  0.00  0.00    +0.005 A 
ATOM     18  C   UNL     1       4.256   1.966   2.353  0.00  0.00    -0.033 A 
ATOM     28  C   UNL     1       3.556   0.716   2.597  0.00  0.00    +0.005 A 
ATOM     29  C   UNL     1       4.134  -0.529   2.261  0.00  0.00    +0.013 A 
BRANCH  18  19
ATOM     19  C   UNL     1       3.557   3.273   2.773  0.00  0.00    +0.119 C 
BRANCH  19  20
ATOM     20  N   UNL     1       2.762   3.247   4.037  0.00  0.00    -0.302 NA
ATOM     21  C   UNL     1       1.821   4.449   4.149  0.00  0.00    +0.066 C 
ATOM     22  C   UNL     1       0.981   4.395   5.467  0.00  0.00    -0.064 C 
ATOM     23  N   UNL     1       1.925   4.333   6.668  0.00  0.00    +0.379 N 
ATOM     24  C   UNL     1       1.140   4.340   7.911  0.00  0.00    -0.096 C 
ATOM     25  H   UNL     1       2.548   5.257   6.656  0.00  0.00    -0.082 HD
ATOM     26  C   UNL     1       2.867   3.141   6.564  0.00  0.00    -0.064 C 
ATOM     27  C   UNL     1       3.675   3.190   5.237  0.00  0.00    +0.066 C 
ENDBRANCH  19  20
ENDBRANCH  18  19
ENDBRANCH  14  15
ENDBRANCH  12  13
TORSDOF 6
ENDMDL
MODEL 3
REMARK VINA RESULT:      -7.7      7.125     14.299
REMARK  Name = C:\Users\Docking\Desktop\test protocol\1iep_ligandH.pdb
REMARK  8 active torsions:
REMARK  status: ('A' for Active; 'I' for Inactive)
REMARK    1  A    between atoms: _5  and  _11
REMARK    2  A    between atoms: _19  and  _21
REMARK    3  A    between atoms: _22  and  _66
REMARK    4  A    between atoms: _27  and  _30
REMARK    5  A    between atoms: _32  and  _33
REMARK    6  A    between atoms: _38  and  _43
REMARK    7  A    between atoms: _43  and  _46
REMARK    8  A    between atoms: _53  and  _55
REMARK                            x       y       z     vdW  Elec       q    Type
REMARK                         _______ _______ _______ _____ _____    ______ ____
ROOT
ATOM     10  C   UNL     1       9.278  -4.538   1.003  0.00  0.00    +0.038 A 
ATOM     11  C   UNL     1       9.223  -5.639   1.896  0.00  0.00    +0.047 A 
ATOM     12  C   UNL     1       8.230  -5.699   2.956  0.00  0.00    +0.035 A 
ATOM     32  C   UNL     1       7.305  -4.621   3.078  0.00  0.00    +0.024 A 
ATOM     33  C   UNL     1       7.348  -3.494   2.180  0.00  0.00    +0.007 A 
ATOM     34  C   UNL     1       8.327  -3.428   1.133  0.00  0.00    -0.029 A 
ATOM     35  C   UNL     1       8.330  -2.192   0.204  0.00  0.00    +0.045 C 
ENDROOT
BRANCH  10   9
ATOM      4  C   UNL     1      11.188  -6.246  -3.056  0.00  0.00    +0.077 A 
ATOM      5  C   UNL     1      10.173  -7.252  -3.180  0.00  0.00    +0.048 A 
ATOM      6  C   UNL     1       9.182  -7.301  -2.174  0.00  0.00    +0.116 A 
ATOM      7  N   UNL     1       9.213  -6.405  -1.127  0.00  0.00    -0.223 NA
ATOM      8  C   UNL     1      10.207  -5.448  -1.037  0.00  0.00    +0.220 A 
ATOM      9  N   UNL     1      10.253  -4.532   0.003  0.00  0.00    -0.283 N 
ATOM     36  H   UNL     1      11.007  -3.847   0.038  0.00  0.00    +0.155 HD
ATOM     37  N   UNL     1      11.166  -5.382  -1.984  0.00  0.00    -0.214 NA
BRANCH   4   3
ATOM      1  C   UNL     1      13.981  -4.649  -5.281  0.00  0.00    +0.020 A 
ATOM      2  C   UNL     1      12.907  -4.769  -4.322  0.00  0.00    +0.013 A 
ATOM      3  C   UNL     1      12.302  -6.065  -4.040  0.00  0.00    +0.019 A 
ATOM     38  C   UNL     1      12.810  -7.228  -4.751  0.00  0.00    +0.120 A 
ATOM     39  N   UNL     1      13.844  -7.082  -5.671  0.00  0.00    -0.263 NA
ATOM     40  C   UNL     1      14.433  -5.840  -5.951  0.00  0.00    +0.111 A 
ENDBRANCH   4   3
ENDBRANCH  10   9
BRANCH  12  13
ATOM     13  N   UNL     1       8.131  -6.788   3.897  0.00  0.00    -0.281 N 
ATOM     14  C   UNL     1       8.335  -6.751   5.267  0.00  0.00    +0.248 C 
ATOM     30  O   UNL     1       8.845  -5.815   5.864  0.00  0.00    -0.270 OA
ATOM     31  H   UNL     1       7.879  -7.696   3.505  0.00  0.00    +0.155 HD
BRANCH  14  15
ATOM     15  C   UNL     1       7.926  -7.929   6.090  0.00  0.00    +0.037 A 
ATOM     16  C   UNL     1       8.706  -8.348   7.257  0.00  0.00    +0.013 A 
ATOM     17  C   UNL     1       8.299  -9.499   8.024  0.00  0.00    +0.005 A 
ATOM     18  C   UNL     1       7.104 -10.239   7.625  0.00  0.00    -0.033 A 
ATOM     28  C   UNL     1       6.346  -9.798   6.466  0.00  0.00    +0.005 A 
ATOM     29  C   UNL     1       6.742  -8.671   5.711  0.00  0.00    +0.013 A 
BRANCH  18  19
ATOM     19  C   UNL     1       6.608 -11.491   8.372  0.00  0.00    +0.119 C 
BRANCH  19  20
ATOM     20  N   UNL     1       6.299 -12.700   7.550  0.00  0.00    -0.302 NA
ATOM     21  C   UNL     1       5.713 -13.834   8.395  0.00  0.00    +0.066 C 
ATOM     22  C   UNL     1       5.375 -15.082   7.517  0.00  0.00    -0.064 C 
ATOM     23  N   UNL     1       6.637 -15.546   6.788  0.00  0.00    +0.379 N 
ATOM     24  C   UNL     1       6.336 -16.755   6.006  0.00  0.00    -0.096 C 
ATOM     25  H   UNL     1       7.391 -15.823   7.561  0.00  0.00    -0.082 HD
ATOM     26  C   UNL     1       7.228 -14.423   5.947  0.00  0.00    -0.064 C 
ATOM     27  C   UNL     1       7.533 -13.178   6.825  0.00  0.00    +0.066 C 
ENDBRANCH  19  20
ENDBRANCH  18  19
ENDBRANCH  14  15
ENDBRANCH  12  13
TORSDOF 6
ENDMDL
MODEL 4
REMARK VINA RESULT:      -7.6      6.143      7.993
REMARK  Name = C:\Users\Docking\Desktop\test protocol\1iep_ligandH.pdb
REMARK  8 active torsions:
REMARK  status: ('A' for Active; 'I' for Inactive)
REMARK    1  A    between atoms: _5  and  _11
REMARK    2  A    between atoms: _19  and  _21
REMARK    3  A    between atoms: _22  and  _66
REMARK    4  A    between atoms: _27  and  _30
REMARK    5  A    between atoms: _32  and  _33
REMARK    6  A    between atoms: _38  and  _43
REMARK    7  A    between atoms: _43  and  _46
REMARK    8  A    between atoms: _53  and  _55
REMARK                            x       y       z     vdW  Elec       q    Type
REMARK                         _______ _______ _______ _____ _____    ______ ____
ROOT
ATOM     10  C   UNL     1       8.788  -5.688   1.721  0.00  0.00    +0.038 A 
ATOM     11  C   UNL     1       7.996  -4.514   1.649  0.00  0.00    +0.047 A 
ATOM     12  C   UNL     1       8.496  -3.307   1.009  0.00  0.00    +0.035 A 
ATOM     32  C   UNL     1       9.807  -3.332   0.450  0.00  0.00    +0.024 A 
ATOM     33  C   UNL     1      10.626  -4.517   0.514  0.00  0.00    +0.007 A 
ATOM     34  C   UNL     1      10.139  -5.710   1.147  0.00  0.00    -0.029 A 
ATOM     35  C   UNL     1      11.063  -6.949   1.193  0.00  0.00    +0.045 C 
ENDROOT
BRANCH  10   9
ATOM      4  C   UNL     1       7.794  -8.285   5.633  0.00  0.00    +0.077 A 
ATOM      5  C   UNL     1       8.407  -7.321   6.501  0.00  0.00    +0.048 A 
ATOM      6  C   UNL     1       8.973  -6.174   5.900  0.00  0.00    +0.116 A 
ATOM      7  N   UNL     1       8.923  -6.013   4.532  0.00  0.00    -0.223 NA
ATOM      8  C   UNL     1       8.326  -6.963   3.724  0.00  0.00    +0.220 A 
ATOM      9  N   UNL     1       8.258  -6.818   2.347  0.00  0.00    -0.283 N 
ATOM     36  H   UNL     1       7.815  -7.545   1.785  0.00  0.00    +0.155 HD
ATOM     37  N   UNL     1       7.780  -8.068   4.273  0.00  0.00    -0.214 NA
BRANCH   4   3
ATOM      1  C   UNL     1       6.652 -11.261   7.901  0.00  0.00    +0.020 A 
ATOM      2  C   UNL     1       7.295 -10.036   7.483  0.00  0.00    +0.013 A 
ATOM      3  C   UNL     1       7.151  -9.547   6.118  0.00  0.00    +0.019 A 
ATOM     38  C   UNL     1       6.342 -10.326   5.193  0.00  0.00    +0.120 A 
ATOM     39  N   UNL     1       5.736 -11.503   5.623  0.00  0.00    -0.263 NA
ATOM     40  C   UNL     1       5.869 -11.984   6.934  0.00  0.00    +0.111 A 
ENDBRANCH   4   3
ENDBRANCH  10   9
BRANCH  12  13
ATOM     13  N   UNL     1       7.740  -2.082   0.913  0.00  0.00    -0.281 N 
ATOM     14  C   UNL     1       6.665  -1.682   1.690  0.00  0.00    +0.248 C 
ATOM     30  O   UNL     1       6.051  -2.415   2.450  0.00  0.00    -0.270 OA
ATOM     31  H   UNL     1       8.034  -1.432   0.184  0.00  0.00    +0.155 HD
BRANCH  14  15
ATOM     15  C   UNL     1       6.195  -0.266   1.597  0.00  0.00    +0.037 A 
ATOM     16  C   UNL     1       6.850   0.695   0.706  0.00  0.00    +0.013 A 
ATOM     17  C   UNL     1       6.388   2.059   0.648  0.00  0.00    +0.005 A 
ATOM     18  C   UNL     1       5.262   2.470   1.484  0.00  0.00    -0.033 A 
ATOM     28  C   UNL     1       4.628   1.494   2.355  0.00  0.00    +0.005 A 
ATOM     29  C   UNL     1       5.079   0.157   2.415  0.00  0.00    +0.013 A 
BRANCH  18  19
ATOM     19  C   UNL     1       4.715   3.909   1.503  0.00  0.00    +0.119 C 
BRANCH  19  20
ATOM     20  N   UNL     1       3.494   4.167   2.323  0.00  0.00    -0.302 NA
ATOM     21  C   UNL     1       2.459   5.002   1.566  0.00  0.00    +0.066 C 
ATOM     22  C   UNL     1       1.179   5.243   2.430  0.00  0.00    -0.064 C 
ATOM     23  N   UNL     1       1.573   5.927   3.741  0.00  0.00    +0.379 N 
ATOM     24  C   UNL     1       0.365   6.207   4.531  0.00  0.00    -0.096 C 
ATOM     25  H   UNL     1       2.043   6.904   3.483  0.00  0.00    -0.082 HD
ATOM     26  C   UNL     1       2.604   5.104   4.499  0.00  0.00    -0.064 C 
ATOM     27  C   UNL     1       3.860   4.845   3.620  0.00  0.00    +0.066 C 
ENDBRANCH  19  20
ENDBRANCH  18  19
ENDBRANCH  14  15
ENDBRANCH  12  13
TORSDOF 6
ENDMDL
MODEL 5
REMARK VINA RESULT:      -7.6      6.841     14.100
REMARK  Name = C:\Users\Docking\Desktop\test protocol\1iep_ligandH.pdb
REMARK  8 active torsions:
REMARK  status: ('A' for Active; 'I' for Inactive)
REMARK    1  A    between atoms: _5  and  _11
REMARK    2  A    between atoms: _19  and  _21
REMARK    3  A    between atoms: _22  and  _66
REMARK    4  A    between atoms: _27  and  _30
REMARK    5  A    between atoms: _32  and  _33
REMARK    6  A    between atoms: _38  and  _43
REMARK    7  A    between atoms: _43  and  _46
REMARK    8  A    between atoms: _53  and  _55
REMARK                            x       y       z     vdW  Elec       q    Type
REMARK                         _______ _______ _______ _____ _____    ______ ____
ROOT
ATOM     10  C   UNL     1       7.323  -2.451   1.732  0.00  0.00    +0.038 A 
ATOM     11  C   UNL     1       7.282  -3.543   2.635  0.00  0.00    +0.047 A 
ATOM     12  C   UNL     1       7.709  -4.873   2.229  0.00  0.00    +0.035 A 
ATOM     32  C   UNL     1       8.175  -5.054   0.894  0.00  0.00    +0.024 A 
ATOM     33  C   UNL     1       8.222  -3.955  -0.038  0.00  0.00    +0.007 A 
ATOM     34  C   UNL     1       7.800  -2.641   0.357  0.00  0.00    -0.029 A 
ATOM     35  C   UNL     1       7.867  -1.502  -0.687  0.00  0.00    +0.045 C 
ENDROOT
BRANCH  10   9
ATOM      4  C   UNL     1       3.918   0.844   2.498  0.00  0.00    +0.077 A 
ATOM      5  C   UNL     1       2.897   0.004   1.942  0.00  0.00    +0.048 A 
ATOM      6  C   UNL     1       3.291  -1.266   1.463  0.00  0.00    +0.116 A 
ATOM      7  N   UNL     1       4.610  -1.656   1.540  0.00  0.00    -0.223 NA
ATOM      8  C   UNL     1       5.570  -0.820   2.081  0.00  0.00    +0.220 A 
ATOM      9  N   UNL     1       6.902  -1.195   2.176  0.00  0.00    -0.283 N 
ATOM     36  H   UNL     1       7.581  -0.547   2.574  0.00  0.00    +0.155 HD
ATOM     37  N   UNL     1       5.220   0.398   2.543  0.00  0.00    -0.214 NA
BRANCH   4   3
ATOM      1  C   UNL     1       4.251   4.187   4.501  0.00  0.00    +0.020 A 
ATOM      2  C   UNL     1       4.547   2.865   4.001  0.00  0.00    +0.013 A 
ATOM      3  C   UNL     1       3.658   2.212   3.047  0.00  0.00    +0.019 A 
ATOM     38  C   UNL     1       2.469   2.931   2.616  0.00  0.00    +0.120 A 
ATOM     39  N   UNL     1       2.209   4.203   3.116  0.00  0.00    -0.263 NA
ATOM     40  C   UNL     1       3.056   4.841   4.035  0.00  0.00    +0.111 A 
ENDBRANCH   4   3
ENDBRANCH  10   9
BRANCH  12  13
ATOM     13  N   UNL     1       7.682  -6.021   3.100  0.00  0.00    -0.281 N 
ATOM     14  C   UNL     1       8.428  -6.238   4.246  0.00  0.00    +0.248 C 
ATOM     30  O   UNL     1       9.392  -5.566   4.581  0.00  0.00    -0.270 OA
ATOM     31  H   UNL     1       7.033  -6.765   2.839  0.00  0.00    +0.155 HD
BRANCH  14  15
ATOM     15  C   UNL     1       8.059  -7.375   5.144  0.00  0.00    +0.037 A 
ATOM     16  C   UNL     1       8.542  -7.440   6.525  0.00  0.00    +0.013 A 
ATOM     17  C   UNL     1       8.185  -8.557   7.365  0.00  0.00    +0.005 A 
ATOM     18  C   UNL     1       7.337  -9.616   6.824  0.00  0.00    -0.033 A 
ATOM     28  C   UNL     1       6.867  -9.524   5.452  0.00  0.00    +0.005 A 
ATOM     29  C   UNL     1       7.216  -8.432   4.626  0.00  0.00    +0.013 A 
BRANCH  18  19
ATOM     19  C   UNL     1       6.924 -10.855   7.641  0.00  0.00    +0.119 C 
BRANCH  19  20
ATOM     20  N   UNL     1       6.443 -12.047   6.880  0.00  0.00    -0.302 NA
ATOM     21  C   UNL     1       5.327 -12.790   7.621  0.00  0.00    +0.066 C 
ATOM     22  C   UNL     1       4.821 -14.020   6.800  0.00  0.00    -0.064 C 
ATOM     23  N   UNL     1       5.996 -14.956   6.512  0.00  0.00    +0.379 N 
ATOM     24  C   UNL     1       5.513 -16.143   5.791  0.00  0.00    -0.096 C 
ATOM     25  H   UNL     1       6.404 -15.298   7.491  0.00  0.00    -0.082 HD
ATOM     26  C   UNL     1       7.111 -14.225   5.778  0.00  0.00    -0.064 C 
ATOM     27  C   UNL     1       7.587 -12.986   6.588  0.00  0.00    +0.066 C 
ENDBRANCH  19  20
ENDBRANCH  18  19
ENDBRANCH  14  15
ENDBRANCH  12  13
TORSDOF 6
ENDMDL
