MODEL 1
REMARK VINA RESULT:      -8.6      0.000      0.000
REMARK  Name = C:\Users\Docking\Desktop\test protocol\1iep_ligandH.pdb
REMARK  8 active torsions:
REMARK  status: ('A' for Active; 'I' for Inactive)
REMARK    1  A    between atoms: _5  and  _11
REMARK    2  A    between atoms: _19  and  _21
REMARK    3  A    between atoms: _22  and  _66
REMARK    4  A    between atoms: _27  and  _30
REMARK    5  A    between atoms: _32  and  _33
REMARK    6  A    between atoms: _38  and  _43
REMARK    7  A    between atoms: _43  and  _46
REMARK    8  A    between atoms: _53  and  _55
REMARK                            x       y       z     vdW  Elec       q    Type
REMARK                         _______ _______ _______ _____ _____    ______ ____
ROOT
ATOM     10  C   UNL     1      28.321   5.044   5.003  0.00  0.00    +0.038 A 
ATOM     11  C   UNL     1      27.624   4.312   4.008  0.00  0.00    +0.047 A 
ATOM     12  C   UNL     1      27.208   2.938   4.238  0.00  0.00    +0.035 A 
ATOM     32  C   UNL     1      27.516   2.340   5.495  0.00  0.00    +0.024 A 
ATOM     33  C   UNL     1      28.224   3.069   6.518  0.00  0.00    +0.007 A 
ATOM     34  C   UNL     1      28.639   4.425   6.295  0.00  0.00    -0.029 A 
ATOM     35  C   UNL     1      29.402   5.156   7.425  0.00  0.00    +0.045 C 
ENDROOT
BRANCH  10   9
ATOM      4  C   UNL     1      31.206   8.281   2.945  0.00  0.00    +0.077 A 
ATOM      5  C   UNL     1      32.051   7.263   2.391  0.00  0.00    +0.048 A 
ATOM      6  C   UNL     1      31.713   5.919   2.666  0.00  0.00    +0.116 A 
ATOM      7  N   UNL     1      30.609   5.626   3.437  0.00  0.00    -0.223 NA
ATOM      8  C   UNL     1      29.816   6.632   3.957  0.00  0.00    +0.220 A 
ATOM      9  N   UNL     1      28.697   6.361   4.729  0.00  0.00    -0.283 N 
ATOM     36  H   UNL     1      28.141   7.132   5.100  0.00  0.00    +0.155 HD
ATOM     37  N   UNL     1      30.118   7.924   3.710  0.00  0.00    -0.214 NA
BRANCH   4   3
ATOM      1  C   UNL     1      32.490  11.703   1.550  0.00  0.00    +0.020 A 
ATOM      2  C   UNL     1      32.308  10.278   1.705  0.00  0.00    +0.013 A 
ATOM      3  C   UNL     1      31.430   9.747   2.741  0.00  0.00    +0.019 A 
ATOM     38  C   UNL     1      30.745  10.693   3.609  0.00  0.00    +0.120 A 
ATOM     39  N   UNL     1      30.940  12.060   3.437  0.00  0.00    -0.263 NA
ATOM     40  C   UNL     1      31.784  12.582   2.445  0.00  0.00    +0.111 A 
ENDBRANCH   4   3
ENDBRANCH  10   9
BRANCH  12  13
ATOM     13  N   UNL     1      26.505   2.142   3.263  0.00  0.00    -0.281 N 
ATOM     14  C   UNL     1      26.989   1.637   2.067  0.00  0.00    +0.248 C 
ATOM     30  O   UNL     1      28.045   1.974   1.552  0.00  0.00    -0.270 OA
ATOM     31  H   UNL     1      25.532   1.925   3.479  0.00  0.00    +0.155 HD
BRANCH  14  15
ATOM     15  C   UNL     1      26.177   0.621   1.331  0.00  0.00    +0.037 A 
ATOM     16  C   UNL     1      25.781   0.830  -0.064  0.00  0.00    +0.013 A 
ATOM     17  C   UNL     1      24.983  -0.158  -0.745  0.00  0.00    +0.005 A 
ATOM     18  C   UNL     1      24.578  -1.367  -0.032  0.00  0.00    -0.033 A 
ATOM     28  C   UNL     1      24.989  -1.552   1.349  0.00  0.00    +0.005 A 
ATOM     29  C   UNL     1      25.770  -0.585   2.021  0.00  0.00    +0.013 A 
BRANCH  18  19
ATOM     19  C   UNL     1      23.708  -2.464  -0.674  0.00  0.00    +0.119 C 
BRANCH  19  20
ATOM     20  N   UNL     1      23.755  -3.823  -0.055  0.00  0.00    -0.302 NA
ATOM     21  C   UNL     1      24.546  -4.817  -0.911  0.00  0.00    +0.066 C 
ATOM     22  C   UNL     1      24.604  -6.227  -0.238  0.00  0.00    -0.064 C 
ATOM     23  N   UNL     1      23.181  -6.733   0.004  0.00  0.00    +0.379 N 
ATOM     24  C   UNL     1      23.232  -8.083   0.583  0.00  0.00    -0.096 C 
ATOM     25  H   UNL     1      22.676  -6.808  -0.987  0.00  0.00    -0.082 HD
ATOM     26  C   UNL     1      22.387  -5.749   0.852  0.00  0.00    -0.064 C 
ATOM     27  C   UNL     1      22.360  -4.343   0.188  0.00  0.00    +0.066 C 
ENDBRANCH  19  20
ENDBRANCH  18  19
ENDBRANCH  14  15
ENDBRANCH  12  13
TORSDOF 6
ENDMDL
MODEL 2
REMARK VINA RESULT:      -8.5      5.185      7.793
REMARK  Name = C:\Users\Docking\Desktop\test protocol\1iep_ligandH.pdb
REMARK  8 active torsions:
REMARK  status: ('A' for Active; 'I' for Inactive)
REMARK    1  A    between atoms: _5  and  _11
REMARK    2  A    between atoms: _19  and  _21
REMARK    3  A    between atoms: _22  and  _66
REMARK    4  A    between atoms: _27  and  _30
REMARK    5  A    between atoms: _32  and  _33
REMARK    6  A    between atoms: _38  and  _43
REMARK    7  A    between atoms: _43  and  _46
REMARK    8  A    between atoms: _53  and  _55
REMARK                            x       y       z     vdW  Elec       q    Type
REMARK                         _______ _______ _______ _____ _____    ______ ____
ROOT
ATOM     10  C   UNL     1      31.426   5.265   2.508  0.00  0.00    +0.038 A 
ATOM     11  C   UNL     1      31.328   4.208   1.568  0.00  0.00    +0.047 A 
ATOM     12  C   UNL     1      31.510   4.447   0.145  0.00  0.00    +0.035 A 
ATOM     32  C   UNL     1      31.794   5.776  -0.286  0.00  0.00    +0.024 A 
ATOM     33  C   UNL     1      31.897   6.863   0.657  0.00  0.00    +0.007 A 
ATOM     34  C   UNL     1      31.716   6.633   2.061  0.00  0.00    -0.029 A 
ATOM     35  C   UNL     1      31.831   7.836   3.026  0.00  0.00    +0.045 C 
ENDROOT
BRANCH  10   9
ATOM      4  C   UNL     1      28.754   3.713   6.181  0.00  0.00    +0.077 A 
ATOM      5  C   UNL     1      27.620   3.479   5.334  0.00  0.00    +0.048 A 
ATOM      6  C   UNL     1      27.763   3.778   3.961  0.00  0.00    +0.116 A 
ATOM      7  N   UNL     1      28.957   4.273   3.481  0.00  0.00    -0.223 NA
ATOM      8  C   UNL     1      30.030   4.488   4.325  0.00  0.00    +0.220 A 
ATOM      9  N   UNL     1      31.242   4.978   3.863  0.00  0.00    -0.283 N 
ATOM     36  H   UNL     1      32.008   5.130   4.519  0.00  0.00    +0.155 HD
ATOM     37  N   UNL     1      29.919   4.212   5.641  0.00  0.00    -0.214 NA
BRANCH   4   3
ATOM      1  C   UNL     1      28.304   1.986   9.662  0.00  0.00    +0.020 A 
ATOM      2  C   UNL     1      28.276   2.196   8.233  0.00  0.00    +0.013 A 
ATOM      3  C   UNL     1      28.760   3.443   7.654  0.00  0.00    +0.019 A 
ATOM     38  C   UNL     1      29.270   4.465   8.556  0.00  0.00    +0.120 A 
ATOM     39  N   UNL     1      29.282   4.235   9.928  0.00  0.00    -0.263 NA
ATOM     40  C   UNL     1      28.818   3.039  10.497  0.00  0.00    +0.111 A 
ENDBRANCH   4   3
ENDBRANCH  10   9
BRANCH  12  13
ATOM     13  N   UNL     1      31.414   3.415  -0.858  0.00  0.00    -0.281 N 
ATOM     14  C   UNL     1      30.378   3.188  -1.749  0.00  0.00    +0.248 C 
ATOM     30  O   UNL     1      29.276   3.711  -1.677  0.00  0.00    -0.270 OA
ATOM     31  H   UNL     1      32.205   2.774  -0.917  0.00  0.00    +0.155 HD
BRANCH  14  15
ATOM     15  C   UNL     1      30.593   2.231  -2.877  0.00  0.00    +0.037 A 
ATOM     16  C   UNL     1      29.821   2.332  -4.117  0.00  0.00    +0.013 A 
ATOM     17  C   UNL     1      30.036   1.385  -5.183  0.00  0.00    +0.005 A 
ATOM     18  C   UNL     1      31.030   0.328  -5.012  0.00  0.00    -0.033 A 
ATOM     28  C   UNL     1      31.786   0.254  -3.772  0.00  0.00    +0.005 A 
ATOM     29  C   UNL     1      31.577   1.180  -2.726  0.00  0.00    +0.013 A 
BRANCH  18  19
ATOM     19  C   UNL     1      31.311  -0.738  -6.087  0.00  0.00    +0.119 C 
BRANCH  19  20
ATOM     20  N   UNL     1      30.974  -2.154  -5.751  0.00  0.00    -0.302 NA
ATOM     21  C   UNL     1      31.937  -3.146  -6.409  0.00  0.00    +0.066 C 
ATOM     22  C   UNL     1      31.584  -4.620  -6.028  0.00  0.00    -0.064 C 
ATOM     23  N   UNL     1      30.139  -4.917  -6.435  0.00  0.00    +0.379 N 
ATOM     24  C   UNL     1      29.822  -6.320  -6.131  0.00  0.00    -0.096 C 
ATOM     25  H   UNL     1      30.066  -4.785  -7.540  0.00  0.00    -0.082 HD
ATOM     26  C   UNL     1      29.175  -3.933  -5.787  0.00  0.00    -0.064 C 
ATOM     27  C   UNL     1      29.553  -2.470  -6.148  0.00  0.00    +0.066 C 
ENDBRANCH  19  20
ENDBRANCH  18  19
ENDBRANCH  14  15
ENDBRANCH  12  13
TORSDOF 6
ENDMDL
MODEL 3
REMARK VINA RESULT:      -8.2      3.005     14.497
REMARK  Name = C:\Users\Docking\Desktop\test protocol\1iep_ligandH.pdb
REMARK  8 active torsions:
REMARK  status: ('A' for Active; 'I' for Inactive)
REMARK    1  A    between atoms: _5  and  _11
REMARK    2  A    between atoms: _19  and  _21
REMARK    3  A    between atoms: _22  and  _66
REMARK    4  A    between atoms: _27  and  _30
REMARK    5  A    between atoms: _32  and  _33
REMARK    6  A    between atoms: _38  and  _43
REMARK    7  A    between atoms: _43  and  _46
REMARK    8  A    between atoms: _53  and  _55
REMARK                            x       y       z     vdW  Elec       q    Type
REMARK                         _______ _______ _______ _____ _____    ______ ____
ROOT
ATOM     10  C   UNL     1      24.107  -4.215  -1.230  0.00  0.00    +0.038 A 
ATOM     11  C   UNL     1      24.943  -3.417  -0.408  0.00  0.00    +0.047 A 
ATOM     12  C   UNL     1      24.399  -2.322   0.380  0.00  0.00    +0.035 A 
ATOM     32  C   UNL     1      22.998  -2.069   0.308  0.00  0.00    +0.024 A 
ATOM     33  C   UNL     1      22.134  -2.869  -0.523  0.00  0.00    +0.007 A 
ATOM     34  C   UNL     1      22.665  -3.949  -1.305  0.00  0.00    -0.029 A 
ATOM     35  C   UNL     1      21.693  -4.771  -2.183  0.00  0.00    +0.045 C 
ENDROOT
BRANCH  10   9
ATOM      4  C   UNL     1      25.076  -8.860  -1.949  0.00  0.00    +0.077 A 
ATOM      5  C   UNL     1      24.402  -9.248  -0.744  0.00  0.00    +0.048 A 
ATOM      6  C   UNL     1      23.825  -8.221   0.036  0.00  0.00    +0.116 A 
ATOM      7  N   UNL     1      23.921  -6.908  -0.368  0.00  0.00    -0.223 NA
ATOM      8  C   UNL     1      24.580  -6.567  -1.535  0.00  0.00    +0.220 A 
ATOM      9  N   UNL     1      24.683  -5.253  -1.966  0.00  0.00    -0.283 N 
ATOM     36  H   UNL     1      25.184  -5.043  -2.828  0.00  0.00    +0.155 HD
ATOM     37  N   UNL     1      25.141  -7.530  -2.297  0.00  0.00    -0.214 NA
BRANCH   4   3
ATOM      1  C   UNL     1      26.570 -10.528  -5.157  0.00  0.00    +0.020 A 
ATOM      2  C   UNL     1      25.929  -9.557  -4.300  0.00  0.00    +0.013 A 
ATOM      3  C   UNL     1      25.733  -9.830  -2.881  0.00  0.00    +0.019 A 
ATOM     38  C   UNL     1      26.201 -11.105  -2.358  0.00  0.00    +0.120 A 
ATOM     39  N   UNL     1      26.814 -12.021  -3.207  0.00  0.00    -0.263 NA
ATOM     40  C   UNL     1      27.006 -11.770  -4.574  0.00  0.00    +0.111 A 
ENDBRANCH   4   3
ENDBRANCH  10   9
BRANCH  12  13
ATOM     13  N   UNL     1      25.199  -1.472   1.227  0.00  0.00    -0.281 N 
ATOM     14  C   UNL     1      25.634  -0.182   0.972  0.00  0.00    +0.248 C 
ATOM     30  O   UNL     1      25.578   0.363  -0.121  0.00  0.00    -0.270 OA
ATOM     31  H   UNL     1      25.480  -1.871   2.123  0.00  0.00    +0.155 HD
BRANCH  14  15
ATOM     15  C   UNL     1      26.229   0.614   2.089  0.00  0.00    +0.037 A 
ATOM     16  C   UNL     1      25.770   1.974   2.382  0.00  0.00    +0.013 A 
ATOM     17  C   UNL     1      26.373   2.725   3.454  0.00  0.00    +0.005 A 
ATOM     18  C   UNL     1      27.442   2.116   4.242  0.00  0.00    -0.033 A 
ATOM     28  C   UNL     1      27.874   0.763   3.933  0.00  0.00    +0.005 A 
ATOM     29  C   UNL     1      27.286   0.024   2.882  0.00  0.00    +0.013 A 
BRANCH  18  19
ATOM     19  C   UNL     1      28.157   2.852   5.391  0.00  0.00    +0.119 C 
BRANCH  19  20
ATOM     20  N   UNL     1      28.474   4.297   5.185  0.00  0.00    -0.302 NA
ATOM     21  C   UNL     1      29.633   4.496   4.204  0.00  0.00    +0.066 C 
ATOM     22  C   UNL     1      29.937   6.014   3.982  0.00  0.00    -0.064 C 
ATOM     23  N   UNL     1      30.248   6.670   5.328  0.00  0.00    +0.379 N 
ATOM     24  C   UNL     1      30.591   8.084   5.117  0.00  0.00    -0.096 C 
ATOM     25  H   UNL     1      31.146   6.164   5.752  0.00  0.00    -0.082 HD
ATOM     26  C   UNL     1      29.102   6.474   6.311  0.00  0.00    -0.064 C 
ATOM     27  C   UNL     1      28.789   4.964   6.501  0.00  0.00    +0.066 C 
ENDBRANCH  19  20
ENDBRANCH  18  19
ENDBRANCH  14  15
ENDBRANCH  12  13
TORSDOF 6
ENDMDL
MODEL 4
REMARK VINA RESULT:      -8.2      4.284     13.977
REMARK  Name = C:\Users\Docking\Desktop\test protocol\1iep_ligandH.pdb
REMARK  8 active torsions:
REMARK  status: ('A' for Active; 'I' for Inactive)
REMARK    1  A    between atoms: _5  and  _11
REMARK    2  A    between atoms: _19  and  _21
REMARK    3  A    between atoms: _22  and  _66
REMARK    4  A    between atoms: _27  and  _30
REMARK    5  A    between atoms: _32  and  _33
REMARK    6  A    between atoms: _38  and  _43
REMARK    7  A    between atoms: _43  and  _46
REMARK    8  A    between atoms: _53  and  _55
REMARK                            x       y       z     vdW  Elec       q    Type
REMARK                         _______ _______ _______ _____ _____    ______ ____
ROOT
ATOM     10  C   UNL     1      23.741  -4.839  -0.277  0.00  0.00    +0.038 A 
ATOM     11  C   UNL     1      24.585  -3.928   0.406  0.00  0.00    +0.047 A 
ATOM     12  C   UNL     1      24.195  -2.539   0.598  0.00  0.00    +0.035 A 
ATOM     32  C   UNL     1      22.936  -2.114   0.083  0.00  0.00    +0.024 A 
ATOM     33  C   UNL     1      22.066  -3.027  -0.615  0.00  0.00    +0.007 A 
ATOM     34  C   UNL     1      22.446  -4.397  -0.809  0.00  0.00    -0.029 A 
ATOM     35  C   UNL     1      21.476  -5.330  -1.571  0.00  0.00    +0.045 C 
ENDROOT
BRANCH  10   9
ATOM      4  C   UNL     1      26.706  -8.146  -2.095  0.00  0.00    +0.077 A 
ATOM      5  C   UNL     1      27.457  -7.161  -2.818  0.00  0.00    +0.048 A 
ATOM      6  C   UNL     1      27.043  -5.815  -2.701  0.00  0.00    +0.116 A 
ATOM      7  N   UNL     1      25.958  -5.490  -1.916  0.00  0.00    -0.223 NA
ATOM      8  C   UNL     1      25.255  -6.466  -1.234  0.00  0.00    +0.220 A 
ATOM      9  N   UNL     1      24.165  -6.161  -0.432  0.00  0.00    -0.283 N 
ATOM     36  H   UNL     1      23.668  -6.910   0.049  0.00  0.00    +0.155 HD
ATOM     37  N   UNL     1      25.629  -7.758  -1.330  0.00  0.00    -0.214 NA
BRANCH   4   3
ATOM      1  C   UNL     1      28.609 -11.558  -1.892  0.00  0.00    +0.020 A 
ATOM      2  C   UNL     1      28.357 -10.136  -1.860  0.00  0.00    +0.013 A 
ATOM      3  C   UNL     1      27.022  -9.610  -2.116  0.00  0.00    +0.019 A 
ATOM     38  C   UNL     1      25.955 -10.557  -2.401  0.00  0.00    +0.120 A 
ATOM     39  N   UNL     1      26.228 -11.922  -2.425  0.00  0.00    -0.263 NA
ATOM     40  C   UNL     1      27.509 -12.439  -2.183  0.00  0.00    +0.111 A 
ENDBRANCH   4   3
ENDBRANCH  10   9
BRANCH  12  13
ATOM     13  N   UNL     1      25.015  -1.566   1.276  0.00  0.00    -0.281 N 
ATOM     14  C   UNL     1      25.479  -0.356   0.788  0.00  0.00    +0.248 C 
ATOM     30  O   UNL     1      25.437  -0.022  -0.387  0.00  0.00    -0.270 OA
ATOM     31  H   UNL     1      25.285  -1.798   2.232  0.00  0.00    +0.155 HD
BRANCH  14  15
ATOM     15  C   UNL     1      26.092   0.619   1.741  0.00  0.00    +0.037 A 
ATOM     16  C   UNL     1      27.106   0.199   2.712  0.00  0.00    +0.013 A 
ATOM     17  C   UNL     1      27.668   1.156   3.631  0.00  0.00    +0.005 A 
ATOM     18  C   UNL     1      27.219   2.545   3.582  0.00  0.00    -0.033 A 
ATOM     28  C   UNL     1      26.216   2.937   2.605  0.00  0.00    +0.005 A 
ATOM     29  C   UNL     1      25.662   2.001   1.704  0.00  0.00    +0.013 A 
BRANCH  18  19
ATOM     19  C   UNL     1      27.750   3.630   4.538  0.00  0.00    +0.119 C 
BRANCH  19  20
ATOM     20  N   UNL     1      28.280   3.177   5.859  0.00  0.00    -0.302 NA
ATOM     21  C   UNL     1      27.170   3.033   6.904  0.00  0.00    +0.066 C 
ATOM     22  C   UNL     1      27.739   2.537   8.274  0.00  0.00    -0.064 C 
ATOM     23  N   UNL     1      28.816   3.510   8.757  0.00  0.00    +0.379 N 
ATOM     24  C   UNL     1      29.313   3.078  10.072  0.00  0.00    -0.096 C 
ATOM     25  H   UNL     1      28.337   4.508   8.888  0.00  0.00    -0.082 HD
ATOM     26  C   UNL     1      29.922   3.661   7.722  0.00  0.00    -0.064 C 
ATOM     27  C   UNL     1      29.342   4.126   6.357  0.00  0.00    +0.066 C 
ENDBRANCH  19  20
ENDBRANCH  18  19
ENDBRANCH  14  15
ENDBRANCH  12  13
TORSDOF 6
ENDMDL
MODEL 5
REMARK VINA RESULT:      -8.1     24.569     28.336
REMARK  Name = C:\Users\Docking\Desktop\test protocol\1iep_ligandH.pdb
REMARK  8 active torsions:
REMARK  status: ('A' for Active; 'I' for Inactive)
REMARK    1  A    between atoms: _5  and  _11
REMARK    2  A    between atoms: _19  and  _21
REMARK    3  A    between atoms: _22  and  _66
REMARK    4  A    between atoms: _27  and  _30
REMARK    5  A    between atoms: _32  and  _33
REMARK    6  A    between atoms: _38  and  _43
REMARK    7  A    between atoms: _43  and  _46
REMARK    8  A    between atoms: _53  and  _55
REMARK                            x       y       z     vdW  Elec       q    Type
REMARK                         _______ _______ _______ _____ _____    ______ ____
ROOT
ATOM     10  C   UNL     1      10.737   2.715  26.532  0.00  0.00    +0.038 A 
ATOM     11  C   UNL     1      11.955   2.021  26.313  0.00  0.00    +0.047 A 
ATOM     12  C   UNL     1      13.154   2.349  27.067  0.00  0.00    +0.035 A 
ATOM     32  C   UNL     1      13.078   3.388  28.040  0.00  0.00    +0.024 A 
ATOM     33  C   UNL     1      11.849   4.105  28.275  0.00  0.00    +0.007 A 
ATOM     34  C   UNL     1      10.663   3.787  27.532  0.00  0.00    -0.029 A 
ATOM     35  C   UNL     1       9.375   4.593  27.822  0.00  0.00    +0.045 C 
ENDROOT
BRANCH  10   9
ATOM      4  C   UNL     1       7.752   3.346  22.827  0.00  0.00    +0.077 A 
ATOM      5  C   UNL     1       8.472   4.498  22.367  0.00  0.00    +0.048 A 
ATOM      6  C   UNL     1       9.601   4.900  23.116  0.00  0.00    +0.116 A 
ATOM      7  N   UNL     1       9.973   4.195  24.240  0.00  0.00    -0.223 NA
ATOM      8  C   UNL     1       9.255   3.089  24.657  0.00  0.00    +0.220 A 
ATOM      9  N   UNL     1       9.616   2.359  25.780  0.00  0.00    -0.283 N 
ATOM     36  H   UNL     1       9.056   1.554  26.059  0.00  0.00    +0.155 HD
ATOM     37  N   UNL     1       8.173   2.685  23.960  0.00  0.00    -0.214 NA
BRANCH   4   3
ATOM      1  C   UNL     1       5.405   1.226  20.525  0.00  0.00    +0.020 A 
ATOM      2  C   UNL     1       6.606   1.721  21.158  0.00  0.00    +0.013 A 
ATOM      3  C   UNL     1       6.541   2.796  22.141  0.00  0.00    +0.019 A 
ATOM     38  C   UNL     1       5.235   3.351  22.463  0.00  0.00    +0.120 A 
ATOM     39  N   UNL     1       4.096   2.855  21.836  0.00  0.00    -0.263 NA
ATOM     40  C   UNL     1       4.147   1.823  20.888  0.00  0.00    +0.111 A 
ENDBRANCH   4   3
ENDBRANCH  10   9
BRANCH  12  13
ATOM     13  N   UNL     1      14.420   1.685  26.882  0.00  0.00    -0.281 N 
ATOM     14  C   UNL     1      15.206   1.652  25.741  0.00  0.00    +0.248 C 
ATOM     30  O   UNL     1      14.834   2.013  24.635  0.00  0.00    -0.270 OA
ATOM     31  H   UNL     1      14.781   1.177  27.690  0.00  0.00    +0.155 HD
BRANCH  14  15
ATOM     15  C   UNL     1      16.602   1.127  25.841  0.00  0.00    +0.037 A 
ATOM     16  C   UNL     1      17.538   1.645  26.843  0.00  0.00    +0.013 A 
ATOM     17  C   UNL     1      18.885   1.134  26.906  0.00  0.00    +0.005 A 
ATOM     18  C   UNL     1      19.302   0.097  25.965  0.00  0.00    -0.033 A 
ATOM     28  C   UNL     1      18.352  -0.402  24.985  0.00  0.00    +0.005 A 
ATOM     29  C   UNL     1      17.032   0.098  24.919  0.00  0.00    +0.013 A 
BRANCH  18  19
ATOM     19  C   UNL     1      20.726  -0.491  25.947  0.00  0.00    +0.119 C 
BRANCH  19  20
ATOM     20  N   UNL     1      21.589  -0.157  24.775  0.00  0.00    -0.302 NA
ATOM     21  C   UNL     1      22.870  -0.995  24.748  0.00  0.00    +0.066 C 
ATOM     22  C   UNL     1      23.750  -0.649  23.503  0.00  0.00    -0.064 C 
ATOM     23  N   UNL     1      24.080   0.845  23.514  0.00  0.00    +0.379 N 
ATOM     24  C   UNL     1      24.955   1.163  22.376  0.00  0.00    -0.096 C 
ATOM     25  H   UNL     1      24.648   1.058  24.449  0.00  0.00    -0.082 HD
ATOM     26  C   UNL     1      22.811   1.685  23.544  0.00  0.00    -0.064 C 
ATOM     27  C   UNL     1      21.930   1.313  24.769  0.00  0.00    +0.066 C 
ENDBRANCH  19  20
ENDBRANCH  18  19
ENDBRANCH  14  15
ENDBRANCH  12  13
TORSDOF 6
ENDMDL
