MODEL 1
REMARK VINA RESULT:      -8.0      0.000      0.000
REMARK  Name = C:\Users\Docking\Desktop\test protocol\1iep_ligandH.pdb
REMARK  8 active torsions:
REMARK  status: ('A' for Active; 'I' for Inactive)
REMARK    1  A    between atoms: _5  and  _11
REMARK    2  A    between atoms: _19  and  _21
REMARK    3  A    between atoms: _22  and  _66
REMARK    4  A    between atoms: _27  and  _30
REMARK    5  A    between atoms: _32  and  _33
REMARK    6  A    between atoms: _38  and  _43
REMARK    7  A    between atoms: _43  and  _46
REMARK    8  A    between atoms: _53  and  _55
REMARK                            x       y       z     vdW  Elec       q    Type
REMARK                         _______ _______ _______ _____ _____    ______ ____
ROOT
ATOM     10  C   UNL     1      -4.869   0.389  -1.119  0.00  0.00    +0.038 A 
ATOM     11  C   UNL     1      -5.279  -0.921  -0.762  0.00  0.00    +0.047 A 
ATOM     12  C   UNL     1      -4.578  -1.676   0.265  0.00  0.00    +0.035 A 
ATOM     32  C   UNL     1      -3.464  -1.064   0.911  0.00  0.00    +0.024 A 
ATOM     33  C   UNL     1      -3.033   0.266   0.559  0.00  0.00    +0.007 A 
ATOM     34  C   UNL     1      -3.719   1.014  -0.455  0.00  0.00    -0.029 A 
ATOM     35  C   UNL     1      -3.208   2.433  -0.795  0.00  0.00    +0.045 C 
ENDROOT
BRANCH  10   9
ATOM      4  C   UNL     1      -5.445   1.867  -5.649  0.00  0.00    +0.077 A 
ATOM      5  C   UNL     1      -4.215   1.258  -6.067  0.00  0.00    +0.048 A 
ATOM      6  C   UNL     1      -3.460   0.580  -5.084  0.00  0.00    +0.116 A 
ATOM      7  N   UNL     1      -3.911   0.521  -3.783  0.00  0.00    -0.223 NA
ATOM      8  C   UNL     1      -5.101   1.121  -3.413  0.00  0.00    +0.220 A 
ATOM      9  N   UNL     1      -5.578   1.068  -2.112  0.00  0.00    -0.283 N 
ATOM     36  H   UNL     1      -6.457   1.529  -1.878  0.00  0.00    +0.155 HD
ATOM     37  N   UNL     1      -5.840   1.776  -4.333  0.00  0.00    -0.214 NA
BRANCH   4   3
ATOM      1  C   UNL     1      -8.561   3.697  -7.146  0.00  0.00    +0.020 A 
ATOM      2  C   UNL     1      -7.723   2.973  -6.219  0.00  0.00    +0.013 A 
ATOM      3  C   UNL     1      -6.355   2.616  -6.572  0.00  0.00    +0.019 A 
ATOM     38  C   UNL     1      -5.860   3.012  -7.882  0.00  0.00    +0.120 A 
ATOM     39  N   UNL     1      -6.690   3.708  -8.755  0.00  0.00    -0.263 NA
ATOM     40  C   UNL     1      -8.009   4.055  -8.427  0.00  0.00    +0.111 A 
ENDBRANCH   4   3
ENDBRANCH  10   9
BRANCH  12  13
ATOM     13  N   UNL     1      -4.944  -3.012   0.664  0.00  0.00    -0.281 N 
ATOM     14  C   UNL     1      -5.383  -3.440   1.906  0.00  0.00    +0.248 C 
ATOM     30  O   UNL     1      -5.324  -2.772   2.928  0.00  0.00    -0.270 OA
ATOM     31  H   UNL     1      -4.871  -3.730  -0.057  0.00  0.00    +0.155 HD
BRANCH  14  15
ATOM     15  C   UNL     1      -5.959  -4.813   2.035  0.00  0.00    +0.037 A 
ATOM     16  C   UNL     1      -5.581  -5.885   1.111  0.00  0.00    +0.013 A 
ATOM     17  C   UNL     1      -6.164  -7.197   1.247  0.00  0.00    +0.005 A 
ATOM     18  C   UNL     1      -7.130  -7.443   2.315  0.00  0.00    -0.033 A 
ATOM     28  C   UNL     1      -7.482  -6.363   3.221  0.00  0.00    +0.005 A 
ATOM     29  C   UNL     1      -6.914  -5.077   3.090  0.00  0.00    +0.013 A 
BRANCH  18  19
ATOM     19  C   UNL     1      -7.818  -8.806   2.522  0.00  0.00    +0.119 C 
BRANCH  19  20
ATOM     20  N   UNL     1      -8.588  -9.365   1.371  0.00  0.00    -0.302 NA
ATOM     21  C   UNL     1      -9.922  -8.641   1.166  0.00  0.00    +0.066 C 
ATOM     22  C   UNL     1     -10.704  -9.223  -0.056  0.00  0.00    -0.064 C 
ATOM     23  N   UNL     1     -10.928 -10.722   0.153  0.00  0.00    +0.379 N 
ATOM     24  C   UNL     1     -11.714 -11.261  -0.966  0.00  0.00    -0.096 C 
ATOM     25  H   UNL     1     -11.532 -10.847   1.082  0.00  0.00    -0.082 HD
ATOM     26  C   UNL     1      -9.607 -11.449   0.360  0.00  0.00    -0.064 C 
ATOM     27  C   UNL     1      -8.824 -10.843   1.558  0.00  0.00    +0.066 C 
ENDBRANCH  19  20
ENDBRANCH  18  19
ENDBRANCH  14  15
ENDBRANCH  12  13
TORSDOF 6
ENDMDL
MODEL 2
REMARK VINA RESULT:      -7.9     10.526     16.860
REMARK  Name = C:\Users\Docking\Desktop\test protocol\1iep_ligandH.pdb
REMARK  8 active torsions:
REMARK  status: ('A' for Active; 'I' for Inactive)
REMARK    1  A    between atoms: _5  and  _11
REMARK    2  A    between atoms: _19  and  _21
REMARK    3  A    between atoms: _22  and  _66
REMARK    4  A    between atoms: _27  and  _30
REMARK    5  A    between atoms: _32  and  _33
REMARK    6  A    between atoms: _38  and  _43
REMARK    7  A    between atoms: _43  and  _46
REMARK    8  A    between atoms: _53  and  _55
REMARK                            x       y       z     vdW  Elec       q    Type
REMARK                         _______ _______ _______ _____ _____    ______ ____
ROOT
ATOM     10  C   UNL     1      -9.482 -16.797  -2.005  0.00  0.00    +0.038 A 
ATOM     11  C   UNL     1      -9.580 -15.695  -1.118  0.00  0.00    +0.047 A 
ATOM     12  C   UNL     1      -8.813 -14.479  -1.339  0.00  0.00    +0.035 A 
ATOM     32  C   UNL     1      -7.956 -14.419  -2.477  0.00  0.00    +0.024 A 
ATOM     33  C   UNL     1      -7.844 -15.530  -3.389  0.00  0.00    +0.007 A 
ATOM     34  C   UNL     1      -8.597 -16.733  -3.174  0.00  0.00    -0.029 A 
ATOM     35  C   UNL     1      -8.432 -17.895  -4.181  0.00  0.00    +0.045 C 
ENDROOT
BRANCH  10   9
ATOM      4  C   UNL     1     -13.455 -19.443  -2.507  0.00  0.00    +0.077 A 
ATOM      5  C   UNL     1     -14.080 -18.454  -3.338  0.00  0.00    +0.048 A 
ATOM      6  C   UNL     1     -13.348 -17.276  -3.606  0.00  0.00    +0.116 A 
ATOM      7  N   UNL     1     -12.086 -17.109  -3.078  0.00  0.00    -0.223 NA
ATOM      8  C   UNL     1     -11.513 -18.082  -2.279  0.00  0.00    +0.220 A 
ATOM      9  N   UNL     1     -10.242 -17.939  -1.744  0.00  0.00    -0.283 N 
ATOM     36  H   UNL     1      -9.858 -18.676  -1.154  0.00  0.00    +0.155 HD
ATOM     37  N   UNL     1     -12.192 -19.216  -2.007  0.00  0.00    -0.214 NA
BRANCH   4   3
ATOM      1  C   UNL     1     -15.211 -22.932  -2.714  0.00  0.00    +0.020 A 
ATOM      2  C   UNL     1     -14.597 -21.691  -3.125  0.00  0.00    +0.013 A 
ATOM      3  C   UNL     1     -14.099 -20.743  -2.136  0.00  0.00    +0.019 A 
ATOM     38  C   UNL     1     -14.239 -21.084  -0.729  0.00  0.00    +0.120 A 
ATOM     39  N   UNL     1     -14.835 -22.286  -0.363  0.00  0.00    -0.263 NA
ATOM     40  C   UNL     1     -15.320 -23.206  -1.305  0.00  0.00    +0.111 A 
ENDBRANCH   4   3
ENDBRANCH  10   9
BRANCH  12  13
ATOM     13  N   UNL     1      -8.865 -13.332  -0.468  0.00  0.00    -0.281 N 
ATOM     14  C   UNL     1      -9.688 -12.222  -0.570  0.00  0.00    +0.248 C 
ATOM     30  O   UNL     1     -10.360 -11.948  -1.553  0.00  0.00    -0.270 OA
ATOM     31  H   UNL     1      -8.217 -13.338   0.320  0.00  0.00    +0.155 HD
BRANCH  14  15
ATOM     15  C   UNL     1      -9.765 -11.272   0.582  0.00  0.00    +0.037 A 
ATOM     16  C   UNL     1     -10.375  -9.948   0.435  0.00  0.00    +0.013 A 
ATOM     17  C   UNL     1     -10.421  -9.044   1.557  0.00  0.00    +0.005 A 
ATOM     18  C   UNL     1      -9.855  -9.463   2.837  0.00  0.00    -0.033 A 
ATOM     28  C   UNL     1      -9.260 -10.784   2.956  0.00  0.00    +0.005 A 
ATOM     29  C   UNL     1      -9.213 -11.672   1.858  0.00  0.00    +0.013 A 
BRANCH  18  19
ATOM     19  C   UNL     1      -9.841  -8.556   4.082  0.00  0.00    +0.119 C 
BRANCH  19  20
ATOM     20  N   UNL     1      -8.950  -8.959   5.211  0.00  0.00    -0.302 NA
ATOM     21  C   UNL     1      -9.729  -9.630   6.346  0.00  0.00    +0.066 C 
ATOM     22  C   UNL     1      -8.778 -10.065   7.509  0.00  0.00    -0.064 C 
ATOM     23  N   UNL     1      -8.016  -8.843   8.024  0.00  0.00    +0.379 N 
ATOM     24  C   UNL     1      -7.164  -9.238   9.156  0.00  0.00    -0.096 C 
ATOM     25  H   UNL     1      -8.767  -8.112   8.404  0.00  0.00    -0.082 HD
ATOM     26  C   UNL     1      -7.241  -8.168   6.902  0.00  0.00    -0.064 C 
ATOM     27  C   UNL     1      -8.190  -7.766   5.738  0.00  0.00    +0.066 C 
ENDBRANCH  19  20
ENDBRANCH  18  19
ENDBRANCH  14  15
ENDBRANCH  12  13
TORSDOF 6
ENDMDL
MODEL 3
REMARK VINA RESULT:      -7.9      2.333      2.933
REMARK  Name = C:\Users\Docking\Desktop\test protocol\1iep_ligandH.pdb
REMARK  8 active torsions:
REMARK  status: ('A' for Active; 'I' for Inactive)
REMARK    1  A    between atoms: _5  and  _11
REMARK    2  A    between atoms: _19  and  _21
REMARK    3  A    between atoms: _22  and  _66
REMARK    4  A    between atoms: _27  and  _30
REMARK    5  A    between atoms: _32  and  _33
REMARK    6  A    between atoms: _38  and  _43
REMARK    7  A    between atoms: _43  and  _46
REMARK    8  A    between atoms: _53  and  _55
REMARK                            x       y       z     vdW  Elec       q    Type
REMARK                         _______ _______ _______ _____ _____    ______ ____
ROOT
ATOM     10  C   UNL     1      -5.079   0.254  -1.182  0.00  0.00    +0.038 A 
ATOM     11  C   UNL     1      -5.475  -1.071  -0.864  0.00  0.00    +0.047 A 
ATOM     12  C   UNL     1      -4.823  -1.816   0.201  0.00  0.00    +0.035 A 
ATOM     32  C   UNL     1      -3.772  -1.180   0.925  0.00  0.00    +0.024 A 
ATOM     33  C   UNL     1      -3.357   0.165   0.615  0.00  0.00    +0.007 A 
ATOM     34  C   UNL     1      -3.994   0.904  -0.437  0.00  0.00    -0.029 A 
ATOM     35  C   UNL     1      -3.503   2.341  -0.730  0.00  0.00    +0.045 C 
ENDROOT
BRANCH  10   9
ATOM      4  C   UNL     1      -5.357   1.828  -5.708  0.00  0.00    +0.077 A 
ATOM      5  C   UNL     1      -4.066   1.296  -6.035  0.00  0.00    +0.048 A 
ATOM      6  C   UNL     1      -3.359   0.630  -5.008  0.00  0.00    +0.116 A 
ATOM      7  N   UNL     1      -3.913   0.511  -3.752  0.00  0.00    -0.223 NA
ATOM      8  C   UNL     1      -5.160   1.037  -3.469  0.00  0.00    +0.220 A 
ATOM      9  N   UNL     1      -5.739   0.922  -2.215  0.00  0.00    -0.283 N 
ATOM     36  H   UNL     1      -6.658   1.331  -2.045  0.00  0.00    +0.155 HD
ATOM     37  N   UNL     1      -5.854   1.679  -4.432  0.00  0.00    -0.214 NA
BRANCH   4   3
ATOM      1  C   UNL     1      -8.477   3.231  -7.605  0.00  0.00    +0.020 A 
ATOM      2  C   UNL     1      -7.683   2.511  -6.636  0.00  0.00    +0.013 A 
ATOM      3  C   UNL     1      -6.227   2.554  -6.686  0.00  0.00    +0.019 A 
ATOM     38  C   UNL     1      -5.601   3.343  -7.736  0.00  0.00    +0.120 A 
ATOM     39  N   UNL     1      -6.391   4.025  -8.656  0.00  0.00    -0.263 NA
ATOM     40  C   UNL     1      -7.793   3.989  -8.619  0.00  0.00    +0.111 A 
ENDBRANCH   4   3
ENDBRANCH  10   9
BRANCH  12  13
ATOM     13  N   UNL     1      -5.176  -3.166   0.564  0.00  0.00    -0.281 N 
ATOM     14  C   UNL     1      -4.370  -4.292   0.542  0.00  0.00    +0.248 C 
ATOM     30  O   UNL     1      -3.276  -4.349   0.002  0.00  0.00    -0.270 OA
ATOM     31  H   UNL     1      -6.138  -3.309   0.874  0.00  0.00    +0.155 HD
BRANCH  14  15
ATOM     15  C   UNL     1      -4.856  -5.541   1.205  0.00  0.00    +0.037 A 
ATOM     16  C   UNL     1      -4.753  -5.721   2.655  0.00  0.00    +0.013 A 
ATOM     17  C   UNL     1      -5.214  -6.942   3.267  0.00  0.00    +0.005 A 
ATOM     18  C   UNL     1      -5.784  -7.993   2.427  0.00  0.00    -0.033 A 
ATOM     28  C   UNL     1      -5.879  -7.786   0.991  0.00  0.00    +0.005 A 
ATOM     29  C   UNL     1      -5.428  -6.590   0.388  0.00  0.00    +0.013 A 
BRANCH  18  19
ATOM     19  C   UNL     1      -6.282  -9.337   2.991  0.00  0.00    +0.119 C 
BRANCH  19  20
ATOM     20  N   UNL     1      -6.933  -9.315   4.335  0.00  0.00    -0.302 NA
ATOM     21  C   UNL     1      -6.942 -10.699   4.991  0.00  0.00    +0.066 C 
ATOM     22  C   UNL     1      -7.606 -10.654   6.406  0.00  0.00    -0.064 C 
ATOM     23  N   UNL     1      -9.028 -10.104   6.281  0.00  0.00    +0.379 N 
ATOM     24  C   UNL     1      -9.675 -10.114   7.601  0.00  0.00    -0.096 C 
ATOM     25  H   UNL     1      -9.600 -10.794   5.618  0.00  0.00    -0.082 HD
ATOM     26  C   UNL     1      -9.028  -8.729   5.627  0.00  0.00    -0.064 C 
ATOM     27  C   UNL     1      -8.340  -8.780   4.235  0.00  0.00    +0.066 C 
ENDBRANCH  19  20
ENDBRANCH  18  19
ENDBRANCH  14  15
ENDBRANCH  12  13
TORSDOF 6
ENDMDL
MODEL 4
REMARK VINA RESULT:      -7.9      3.525     12.466
REMARK  Name = C:\Users\Docking\Desktop\test protocol\1iep_ligandH.pdb
REMARK  8 active torsions:
REMARK  status: ('A' for Active; 'I' for Inactive)
REMARK    1  A    between atoms: _5  and  _11
REMARK    2  A    between atoms: _19  and  _21
REMARK    3  A    between atoms: _22  and  _66
REMARK    4  A    between atoms: _27  and  _30
REMARK    5  A    between atoms: _32  and  _33
REMARK    6  A    between atoms: _38  and  _43
REMARK    7  A    between atoms: _43  and  _46
REMARK    8  A    between atoms: _53  and  _55
REMARK                            x       y       z     vdW  Elec       q    Type
REMARK                         _______ _______ _______ _____ _____    ______ ____
ROOT
ATOM     10  C   UNL     1      -7.567  -7.553   3.302  0.00  0.00    +0.038 A 
ATOM     11  C   UNL     1      -7.148  -6.305   2.774  0.00  0.00    +0.047 A 
ATOM     12  C   UNL     1      -7.250  -5.084   3.557  0.00  0.00    +0.035 A 
ATOM     32  C   UNL     1      -7.781  -5.171   4.877  0.00  0.00    +0.024 A 
ATOM     33  C   UNL     1      -8.212  -6.431   5.430  0.00  0.00    +0.007 A 
ATOM     34  C   UNL     1      -8.116  -7.638   4.661  0.00  0.00    -0.029 A 
ATOM     35  C   UNL     1      -8.599  -8.960   5.302  0.00  0.00    +0.045 C 
ENDROOT
BRANCH  10   9
ATOM      4  C   UNL     1      -9.200 -10.555  -0.069  0.00  0.00    +0.077 A 
ATOM      5  C   UNL     1     -10.408  -9.800  -0.239  0.00  0.00    +0.048 A 
ATOM      6  C   UNL     1     -10.574  -8.650   0.566  0.00  0.00    +0.116 A 
ATOM      7  N   UNL     1      -9.597  -8.291   1.469  0.00  0.00    -0.223 NA
ATOM      8  C   UNL     1      -8.444  -9.042   1.609  0.00  0.00    +0.220 A 
ATOM      9  N   UNL     1      -7.446  -8.694   2.506  0.00  0.00    -0.283 N 
ATOM     36  H   UNL     1      -6.614  -9.279   2.585  0.00  0.00    +0.155 HD
ATOM     37  N   UNL     1      -8.263 -10.145   0.854  0.00  0.00    -0.214 NA
BRANCH   4   3
ATOM      1  C   UNL     1      -9.231 -14.219  -1.436  0.00  0.00    +0.020 A 
ATOM      2  C   UNL     1      -9.581 -13.054  -0.657  0.00  0.00    +0.013 A 
ATOM      3  C   UNL     1      -8.877 -11.792  -0.847  0.00  0.00    +0.019 A 
ATOM     38  C   UNL     1      -7.816 -11.742  -1.842  0.00  0.00    +0.120 A 
ATOM     39  N   UNL     1      -7.500 -12.881  -2.576  0.00  0.00    -0.263 NA
ATOM     40  C   UNL     1      -8.170 -14.102  -2.400  0.00  0.00    +0.111 A 
ENDBRANCH   4   3
ENDBRANCH  10   9
BRANCH  12  13
ATOM     13  N   UNL     1      -6.849  -3.787   3.071  0.00  0.00    -0.281 N 
ATOM     14  C   UNL     1      -5.563  -3.298   2.912  0.00  0.00    +0.248 C 
ATOM     30  O   UNL     1      -4.560  -3.828   3.367  0.00  0.00    -0.270 OA
ATOM     31  H   UNL     1      -7.605  -3.153   2.813  0.00  0.00    +0.155 HD
BRANCH  14  15
ATOM     15  C   UNL     1      -5.363  -2.029   2.148  0.00  0.00    +0.037 A 
ATOM     16  C   UNL     1      -5.087  -0.765   2.834  0.00  0.00    +0.013 A 
ATOM     17  C   UNL     1      -4.915   0.448   2.075  0.00  0.00    +0.005 A 
ATOM     18  C   UNL     1      -5.016   0.401   0.618  0.00  0.00    -0.033 A 
ATOM     28  C   UNL     1      -5.285  -0.867  -0.038  0.00  0.00    +0.005 A 
ATOM     29  C   UNL     1      -5.456  -2.058   0.704  0.00  0.00    +0.013 A 
BRANCH  18  19
ATOM     19  C   UNL     1      -4.867   1.650  -0.271  0.00  0.00    +0.119 C 
BRANCH  19  20
ATOM     20  N   UNL     1      -3.481   2.070  -0.634  0.00  0.00    -0.302 NA
ATOM     21  C   UNL     1      -2.923   3.113   0.338  0.00  0.00    +0.066 C 
ATOM     22  C   UNL     1      -1.464   3.524  -0.043  0.00  0.00    -0.064 C 
ATOM     23  N   UNL     1      -1.445   4.056  -1.478  0.00  0.00    +0.379 N 
ATOM     24  C   UNL     1      -0.085   4.497  -1.819  0.00  0.00    -0.096 C 
ATOM     25  H   UNL     1      -2.111   4.949  -1.515  0.00  0.00    -0.082 HD
ATOM     26  C   UNL     1      -2.001   3.025  -2.451  0.00  0.00    -0.064 C 
ATOM     27  C   UNL     1      -3.440   2.602  -2.046  0.00  0.00    +0.066 C 
ENDBRANCH  19  20
ENDBRANCH  18  19
ENDBRANCH  14  15
ENDBRANCH  12  13
TORSDOF 6
ENDMDL
MODEL 5
REMARK VINA RESULT:      -7.6      4.419     12.459
REMARK  Name = C:\Users\Docking\Desktop\test protocol\1iep_ligandH.pdb
REMARK  8 active torsions:
REMARK  status: ('A' for Active; 'I' for Inactive)
REMARK    1  A    between atoms: _5  and  _11
REMARK    2  A    between atoms: _19  and  _21
REMARK    3  A    between atoms: _22  and  _66
REMARK    4  A    between atoms: _27  and  _30
REMARK    5  A    between atoms: _32  and  _33
REMARK    6  A    between atoms: _38  and  _43
REMARK    7  A    between atoms: _43  and  _46
REMARK    8  A    between atoms: _53  and  _55
REMARK                            x       y       z     vdW  Elec       q    Type
REMARK                         _______ _______ _______ _____ _____    ______ ____
ROOT
ATOM     10  C   UNL     1      -4.499  -6.620   0.598  0.00  0.00    +0.038 A 
ATOM     11  C   UNL     1      -4.696  -5.231   0.385  0.00  0.00    +0.047 A 
ATOM     12  C   UNL     1      -3.762  -4.249   0.913  0.00  0.00    +0.035 A 
ATOM     32  C   UNL     1      -2.635  -4.716   1.650  0.00  0.00    +0.024 A 
ATOM     33  C   UNL     1      -2.420  -6.124   1.877  0.00  0.00    +0.007 A 
ATOM     34  C   UNL     1      -3.339  -7.097   1.361  0.00  0.00    -0.029 A 
ATOM     35  C   UNL     1      -3.062  -8.593   1.640  0.00  0.00    +0.045 C 
ENDROOT
BRANCH  10   9
ATOM      4  C   UNL     1      -8.609  -9.086   0.831  0.00  0.00    +0.077 A 
ATOM      5  C   UNL     1      -8.921  -8.560   2.128  0.00  0.00    +0.048 A 
ATOM      6  C   UNL     1      -7.993  -7.662   2.704  0.00  0.00    +0.116 A 
ATOM      7  N   UNL     1      -6.844  -7.324   2.023  0.00  0.00    -0.223 NA
ATOM      8  C   UNL     1      -6.573  -7.851   0.774  0.00  0.00    +0.220 A 
ATOM      9  N   UNL     1      -5.427  -7.519   0.068  0.00  0.00    -0.283 N 
ATOM     36  H   UNL     1      -5.260  -7.935  -0.847  0.00  0.00    +0.155 HD
ATOM     37  N   UNL     1      -7.442  -8.711   0.203  0.00  0.00    -0.214 NA
BRANCH   4   3
ATOM      1  C   UNL     1     -11.744 -10.836  -0.722  0.00  0.00    +0.020 A 
ATOM      2  C   UNL     1     -10.938  -9.884   0.006  0.00  0.00    +0.013 A 
ATOM      3  C   UNL     1      -9.492 -10.043   0.090  0.00  0.00    +0.019 A 
ATOM     38  C   UNL     1      -8.887 -11.184  -0.581  0.00  0.00    +0.120 A 
ATOM     39  N   UNL     1      -9.690 -12.085  -1.274  0.00  0.00    -0.263 NA
ATOM     40  C   UNL     1     -11.083 -11.944  -1.360  0.00  0.00    +0.111 A 
ENDBRANCH   4   3
ENDBRANCH  10   9
BRANCH  12  13
ATOM     13  N   UNL     1      -3.915  -2.826   0.736  0.00  0.00    -0.281 N 
ATOM     14  C   UNL     1      -4.664  -1.948   1.501  0.00  0.00    +0.248 C 
ATOM     30  O   UNL     1      -5.492  -2.290   2.333  0.00  0.00    -0.270 OA
ATOM     31  H   UNL     1      -3.409  -2.416  -0.050  0.00  0.00    +0.155 HD
BRANCH  14  15
ATOM     15  C   UNL     1      -4.478  -0.478   1.306  0.00  0.00    +0.037 A 
ATOM     16  C   UNL     1      -5.365   0.290   0.430  0.00  0.00    +0.013 A 
ATOM     17  C   UNL     1      -5.153   1.704   0.245  0.00  0.00    +0.005 A 
ATOM     18  C   UNL     1      -4.047   2.359   0.940  0.00  0.00    -0.033 A 
ATOM     28  C   UNL     1      -3.184   1.573   1.807  0.00  0.00    +0.005 A 
ATOM     29  C   UNL     1      -3.389   0.187   1.990  0.00  0.00    +0.013 A 
BRANCH  18  19
ATOM     19  C   UNL     1      -3.732   3.858   0.785  0.00  0.00    +0.119 C 
BRANCH  19  20
ATOM     20  N   UNL     1      -2.302   4.273   0.900  0.00  0.00    -0.302 NA
ATOM     21  C   UNL     1      -2.159   5.703   1.426  0.00  0.00    +0.066 C 
ATOM     22  C   UNL     1      -0.656   6.112   1.561  0.00  0.00    -0.064 C 
ATOM     23  N   UNL     1       0.034   5.963   0.204  0.00  0.00    +0.379 N 
ATOM     24  C   UNL     1       1.433   6.402   0.314  0.00  0.00    -0.096 C 
ATOM     25  H   UNL     1      -0.479   6.645  -0.513  0.00  0.00    -0.082 HD
ATOM     26  C   UNL     1      -0.106   4.544  -0.328  0.00  0.00    -0.064 C 
ATOM     27  C   UNL     1      -1.602   4.137  -0.430  0.00  0.00    +0.066 C 
ENDBRANCH  19  20
ENDBRANCH  18  19
ENDBRANCH  14  15
ENDBRANCH  12  13
TORSDOF 6
ENDMDL
