MODEL 1
REMARK VINA RESULT:      -7.9      0.000      0.000
REMARK  Name = C:\Users\Docking\Desktop\test protocol\1iep_ligandH.pdb
REMARK  8 active torsions:
REMARK  status: ('A' for Active; 'I' for Inactive)
REMARK    1  A    between atoms: _5  and  _11
REMARK    2  A    between atoms: _19  and  _21
REMARK    3  A    between atoms: _22  and  _66
REMARK    4  A    between atoms: _27  and  _30
REMARK    5  A    between atoms: _32  and  _33
REMARK    6  A    between atoms: _38  and  _43
REMARK    7  A    between atoms: _43  and  _46
REMARK    8  A    between atoms: _53  and  _55
REMARK                            x       y       z     vdW  Elec       q    Type
REMARK                         _______ _______ _______ _____ _____    ______ ____
ROOT
ATOM     10  C   UNL     1      -4.712   0.410  -1.256  0.00  0.00    +0.038 A 
ATOM     11  C   UNL     1      -4.975  -0.919  -0.836  0.00  0.00    +0.047 A 
ATOM     12  C   UNL     1      -4.205  -1.538   0.232  0.00  0.00    +0.035 A 
ATOM     32  C   UNL     1      -3.175  -0.772   0.853  0.00  0.00    +0.024 A 
ATOM     33  C   UNL     1      -2.893   0.580   0.438  0.00  0.00    +0.007 A 
ATOM     34  C   UNL     1      -3.648   1.194  -0.617  0.00  0.00    -0.029 A 
ATOM     35  C   UNL     1      -3.298   2.644  -1.025  0.00  0.00    +0.045 C 
ENDROOT
BRANCH  10   9
ATOM      4  C   UNL     1      -5.396   1.596  -5.856  0.00  0.00    +0.077 A 
ATOM      5  C   UNL     1      -4.098   1.116  -6.234  0.00  0.00    +0.048 A 
ATOM      6  C   UNL     1      -3.283   0.577  -5.214  0.00  0.00    +0.116 A 
ATOM      7  N   UNL     1      -3.741   0.528  -3.915  0.00  0.00    -0.223 NA
ATOM      8  C   UNL     1      -4.998   1.001  -3.584  0.00  0.00    +0.220 A 
ATOM      9  N   UNL     1      -5.482   0.954  -2.286  0.00  0.00    -0.283 N 
ATOM     36  H   UNL     1      -6.412   1.320  -2.081  0.00  0.00    +0.155 HD
ATOM     37  N   UNL     1      -5.795   1.521  -4.540  0.00  0.00    -0.214 NA
BRANCH   4   3
ATOM      1  C   UNL     1      -8.689   2.425  -7.798  0.00  0.00    +0.020 A 
ATOM      2  C   UNL     1      -7.785   1.821  -6.846  0.00  0.00    +0.013 A 
ATOM      3  C   UNL     1      -6.375   2.189  -6.821  0.00  0.00    +0.019 A 
ATOM     38  C   UNL     1      -5.908   3.180  -7.779  0.00  0.00    +0.120 A 
ATOM     39  N   UNL     1      -6.801   3.743  -8.685  0.00  0.00    -0.263 NA
ATOM     40  C   UNL     1      -8.160   3.395  -8.720  0.00  0.00    +0.111 A 
ENDBRANCH   4   3
ENDBRANCH  10   9
BRANCH  12  13
ATOM     13  N   UNL     1      -4.421  -2.886   0.695  0.00  0.00    -0.281 N 
ATOM     14  C   UNL     1      -5.173  -3.303   1.782  0.00  0.00    +0.248 C 
ATOM     30  O   UNL     1      -5.602  -2.559   2.651  0.00  0.00    -0.270 OA
ATOM     31  H   UNL     1      -3.965  -3.622   0.157  0.00  0.00    +0.155 HD
BRANCH  14  15
ATOM     15  C   UNL     1      -5.480  -4.758   1.931  0.00  0.00    +0.037 A 
ATOM     16  C   UNL     1      -6.504  -5.226   2.869  0.00  0.00    +0.013 A 
ATOM     17  C   UNL     1      -6.768  -6.636   3.007  0.00  0.00    +0.005 A 
ATOM     18  C   UNL     1      -6.008  -7.589   2.201  0.00  0.00    -0.033 A 
ATOM     28  C   UNL     1      -5.002  -7.097   1.275  0.00  0.00    +0.005 A 
ATOM     29  C   UNL     1      -4.739  -5.716   1.138  0.00  0.00    +0.013 A 
BRANCH  18  19
ATOM     19  C   UNL     1      -6.209  -9.113   2.298  0.00  0.00    +0.119 C 
BRANCH  19  20
ATOM     20  N   UNL     1      -7.280  -9.717   1.449  0.00  0.00    -0.302 NA
ATOM     21  C   UNL     1      -7.983 -10.880   2.153  0.00  0.00    +0.066 C 
ATOM     22  C   UNL     1      -9.115 -11.485   1.261  0.00  0.00    -0.064 C 
ATOM     23  N   UNL     1      -8.520 -11.939  -0.074  0.00  0.00    +0.379 N 
ATOM     24  C   UNL     1      -9.571 -12.561  -0.893  0.00  0.00    -0.096 C 
ATOM     25  H   UNL     1      -7.755 -12.720   0.145  0.00  0.00    -0.082 HD
ATOM     26  C   UNL     1      -7.817 -10.789  -0.779  0.00  0.00    -0.064 C 
ATOM     27  C   UNL     1      -6.714 -10.176   0.128  0.00  0.00    +0.066 C 
ENDBRANCH  19  20
ENDBRANCH  18  19
ENDBRANCH  14  15
ENDBRANCH  12  13
TORSDOF 6
ENDMDL
MODEL 2
REMARK VINA RESULT:      -7.9      7.964     12.691
REMARK  Name = C:\Users\Docking\Desktop\test protocol\1iep_ligandH.pdb
REMARK  8 active torsions:
REMARK  status: ('A' for Active; 'I' for Inactive)
REMARK    1  A    between atoms: _5  and  _11
REMARK    2  A    between atoms: _19  and  _21
REMARK    3  A    between atoms: _22  and  _66
REMARK    4  A    between atoms: _27  and  _30
REMARK    5  A    between atoms: _32  and  _33
REMARK    6  A    between atoms: _38  and  _43
REMARK    7  A    between atoms: _43  and  _46
REMARK    8  A    between atoms: _53  and  _55
REMARK                            x       y       z     vdW  Elec       q    Type
REMARK                         _______ _______ _______ _____ _____    ______ ____
ROOT
ATOM     10  C   UNL     1      -6.627  -6.120   3.272  0.00  0.00    +0.038 A 
ATOM     11  C   UNL     1      -7.448  -5.038   3.678  0.00  0.00    +0.047 A 
ATOM     12  C   UNL     1      -7.008  -4.102   4.701  0.00  0.00    +0.035 A 
ATOM     32  C   UNL     1      -5.723  -4.297   5.288  0.00  0.00    +0.024 A 
ATOM     33  C   UNL     1      -4.876  -5.392   4.887  0.00  0.00    +0.007 A 
ATOM     34  C   UNL     1      -5.306  -6.320   3.881  0.00  0.00    -0.029 A 
ATOM     35  C   UNL     1      -4.358  -7.480   3.495  0.00  0.00    +0.045 C 
ENDROOT
BRANCH  10   9
ATOM      4  C   UNL     1      -9.414  -9.740   1.801  0.00  0.00    +0.077 A 
ATOM      5  C   UNL     1      -9.955  -9.936   3.115  0.00  0.00    +0.048 A 
ATOM      6  C   UNL     1      -9.484  -9.089   4.143  0.00  0.00    +0.116 A 
ATOM      7  N   UNL     1      -8.543  -8.121   3.866  0.00  0.00    -0.223 NA
ATOM      8  C   UNL     1      -8.040  -7.960   2.588  0.00  0.00    +0.220 A 
ATOM      9  N   UNL     1      -7.099  -6.989   2.285  0.00  0.00    -0.283 N 
ATOM     36  H   UNL     1      -6.748  -6.907   1.331  0.00  0.00    +0.155 HD
ATOM     37  N   UNL     1      -8.473  -8.758   1.589  0.00  0.00    -0.214 NA
BRANCH   4   3
ATOM      1  C   UNL     1      -9.584 -12.553  -0.912  0.00  0.00    +0.020 A 
ATOM      2  C   UNL     1      -9.159 -11.805   0.249  0.00  0.00    +0.013 A 
ATOM      3  C   UNL     1      -9.814 -10.554   0.610  0.00  0.00    +0.019 A 
ATOM     38  C   UNL     1     -10.905 -10.084  -0.231  0.00  0.00    +0.120 A 
ATOM     39  N   UNL     1     -11.292 -10.825  -1.343  0.00  0.00    -0.263 NA
ATOM     40  C   UNL     1     -10.668 -12.029  -1.702  0.00  0.00    +0.111 A 
ENDBRANCH   4   3
ENDBRANCH  10   9
BRANCH  12  13
ATOM     13  N   UNL     1      -7.802  -2.989   5.160  0.00  0.00    -0.281 N 
ATOM     14  C   UNL     1      -7.434  -1.988   6.045  0.00  0.00    +0.248 C 
ATOM     30  O   UNL     1      -6.433  -2.018   6.745  0.00  0.00    -0.270 OA
ATOM     31  H   UNL     1      -8.749  -2.932   4.787  0.00  0.00    +0.155 HD
BRANCH  14  15
ATOM     15  C   UNL     1      -8.314  -0.788   6.183  0.00  0.00    +0.037 A 
ATOM     16  C   UNL     1      -8.595   0.084   5.039  0.00  0.00    +0.013 A 
ATOM     17  C   UNL     1      -9.433   1.245   5.204  0.00  0.00    +0.005 A 
ATOM     18  C   UNL     1      -9.997   1.540   6.518  0.00  0.00    -0.033 A 
ATOM     28  C   UNL     1      -9.706   0.656   7.634  0.00  0.00    +0.005 A 
ATOM     29  C   UNL     1      -8.885  -0.482   7.477  0.00  0.00    +0.013 A 
BRANCH  18  19
ATOM     19  C   UNL     1     -10.885   2.769   6.790  0.00  0.00    +0.119 C 
BRANCH  19  20
ATOM     20  N   UNL     1     -12.281   2.515   7.256  0.00  0.00    -0.302 NA
ATOM     21  C   UNL     1     -13.290   2.572   6.105  0.00  0.00    +0.066 C 
ATOM     22  C   UNL     1     -14.742   2.282   6.606  0.00  0.00    -0.064 C 
ATOM     23  N   UNL     1     -15.111   3.285   7.700  0.00  0.00    +0.379 N 
ATOM     24  C   UNL     1     -16.497   3.051   8.132  0.00  0.00    -0.096 C 
ATOM     25  H   UNL     1     -15.064   4.305   7.253  0.00  0.00    -0.082 HD
ATOM     26  C   UNL     1     -14.112   3.236   8.847  0.00  0.00    -0.064 C 
ATOM     27  C   UNL     1     -12.668   3.497   8.334  0.00  0.00    +0.066 C 
ENDBRANCH  19  20
ENDBRANCH  18  19
ENDBRANCH  14  15
ENDBRANCH  12  13
TORSDOF 6
ENDMDL
MODEL 3
REMARK VINA RESULT:      -7.8      4.452     12.260
REMARK  Name = C:\Users\Docking\Desktop\test protocol\1iep_ligandH.pdb
REMARK  8 active torsions:
REMARK  status: ('A' for Active; 'I' for Inactive)
REMARK    1  A    between atoms: _5  and  _11
REMARK    2  A    between atoms: _19  and  _21
REMARK    3  A    between atoms: _22  and  _66
REMARK    4  A    between atoms: _27  and  _30
REMARK    5  A    between atoms: _32  and  _33
REMARK    6  A    between atoms: _38  and  _43
REMARK    7  A    between atoms: _43  and  _46
REMARK    8  A    between atoms: _53  and  _55
REMARK                            x       y       z     vdW  Elec       q    Type
REMARK                         _______ _______ _______ _____ _____    ______ ____
ROOT
ATOM     10  C   UNL     1      -4.661  -7.650   0.292  0.00  0.00    +0.038 A 
ATOM     11  C   UNL     1      -4.807  -6.253   0.098  0.00  0.00    +0.047 A 
ATOM     12  C   UNL     1      -3.871  -5.309   0.688  0.00  0.00    +0.035 A 
ATOM     32  C   UNL     1      -2.796  -5.824   1.469  0.00  0.00    +0.024 A 
ATOM     33  C   UNL     1      -2.633  -7.241   1.678  0.00  0.00    +0.007 A 
ATOM     34  C   UNL     1      -3.555  -8.177   1.100  0.00  0.00    -0.029 A 
ATOM     35  C   UNL     1      -3.335  -9.685   1.362  0.00  0.00    +0.045 C 
ENDROOT
BRANCH  10   9
ATOM      4  C   UNL     1      -8.929  -9.843   0.185  0.00  0.00    +0.077 A 
ATOM      5  C   UNL     1      -9.334  -9.245   1.424  0.00  0.00    +0.048 A 
ATOM      6  C   UNL     1      -8.412  -8.384   2.061  0.00  0.00    +0.116 A 
ATOM      7  N   UNL     1      -7.180  -8.147   1.491  0.00  0.00    -0.223 NA
ATOM      8  C   UNL     1      -6.820  -8.742   0.296  0.00  0.00    +0.220 A 
ATOM      9  N   UNL     1      -5.589  -8.511  -0.299  0.00  0.00    -0.283 N 
ATOM     36  H   UNL     1      -5.359  -8.975  -1.177  0.00  0.00    +0.155 HD
ATOM     37  N   UNL     1      -7.683  -9.569  -0.331  0.00  0.00    -0.214 NA
BRANCH   4   3
ATOM      1  C   UNL     1     -12.031 -11.555  -1.474  0.00  0.00    +0.020 A 
ATOM      2  C   UNL     1     -11.242 -10.631  -0.693  0.00  0.00    +0.013 A 
ATOM      3  C   UNL     1      -9.794 -10.773  -0.609  0.00  0.00    +0.019 A 
ATOM     38  C   UNL     1      -9.170 -11.869  -1.334  0.00  0.00    +0.120 A 
ATOM     39  N   UNL     1      -9.955 -12.745  -2.077  0.00  0.00    -0.263 NA
ATOM     40  C   UNL     1     -11.350 -12.619  -2.164  0.00  0.00    +0.111 A 
ENDBRANCH   4   3
ENDBRANCH  10   9
BRANCH  12  13
ATOM     13  N   UNL     1      -3.973  -3.879   0.533  0.00  0.00    -0.281 N 
ATOM     14  C   UNL     1      -4.883  -3.021   1.128  0.00  0.00    +0.248 C 
ATOM     30  O   UNL     1      -5.887  -3.382   1.723  0.00  0.00    -0.270 OA
ATOM     31  H   UNL     1      -3.292  -3.448  -0.093  0.00  0.00    +0.155 HD
BRANCH  14  15
ATOM     15  C   UNL     1      -4.650  -1.547   1.037  0.00  0.00    +0.037 A 
ATOM     16  C   UNL     1      -4.795  -0.681   2.210  0.00  0.00    +0.013 A 
ATOM     17  C   UNL     1      -4.582   0.740   2.091  0.00  0.00    +0.005 A 
ATOM     18  C   UNL     1      -4.220   1.303   0.792  0.00  0.00    -0.033 A 
ATOM     28  C   UNL     1      -4.078   0.420  -0.354  0.00  0.00    +0.005 A 
ATOM     29  C   UNL     1      -4.287  -0.972  -0.241  0.00  0.00    +0.013 A 
BRANCH  18  19
ATOM     19  C   UNL     1      -3.994   2.810   0.568  0.00  0.00    +0.119 C 
BRANCH  19  20
ATOM     20  N   UNL     1      -2.630   3.347   0.856  0.00  0.00    -0.302 NA
ATOM     21  C   UNL     1      -2.684   4.651   1.657  0.00  0.00    +0.066 C 
ATOM     22  C   UNL     1      -1.248   5.187   1.968  0.00  0.00    -0.064 C 
ATOM     23  N   UNL     1      -0.487   5.388   0.657  0.00  0.00    +0.379 N 
ATOM     24  C   UNL     1       0.843   5.947   0.942  0.00  0.00    -0.096 C 
ATOM     25  H   UNL     1      -1.047   6.139   0.053  0.00  0.00    -0.082 HD
ATOM     26  C   UNL     1      -0.431   4.097  -0.148  0.00  0.00    -0.064 C 
ATOM     27  C   UNL     1      -1.862   3.558  -0.426  0.00  0.00    +0.066 C 
ENDBRANCH  19  20
ENDBRANCH  18  19
ENDBRANCH  14  15
ENDBRANCH  12  13
TORSDOF 6
ENDMDL
MODEL 4
REMARK VINA RESULT:      -7.7      2.940     12.503
REMARK  Name = C:\Users\Docking\Desktop\test protocol\1iep_ligandH.pdb
REMARK  8 active torsions:
REMARK  status: ('A' for Active; 'I' for Inactive)
REMARK    1  A    between atoms: _5  and  _11
REMARK    2  A    between atoms: _19  and  _21
REMARK    3  A    between atoms: _22  and  _66
REMARK    4  A    between atoms: _27  and  _30
REMARK    5  A    between atoms: _32  and  _33
REMARK    6  A    between atoms: _38  and  _43
REMARK    7  A    between atoms: _43  and  _46
REMARK    8  A    between atoms: _53  and  _55
REMARK                            x       y       z     vdW  Elec       q    Type
REMARK                         _______ _______ _______ _____ _____    ______ ____
ROOT
ATOM     10  C   UNL     1      -8.358  -9.984   2.898  0.00  0.00    +0.038 A 
ATOM     11  C   UNL     1      -7.812  -8.712   2.589  0.00  0.00    +0.047 A 
ATOM     12  C   UNL     1      -7.936  -7.596   3.513  0.00  0.00    +0.035 A 
ATOM     32  C   UNL     1      -8.622  -7.811   4.744  0.00  0.00    +0.024 A 
ATOM     33  C   UNL     1      -9.184  -9.097   5.073  0.00  0.00    +0.007 A 
ATOM     34  C   UNL     1      -9.066 -10.201   4.165  0.00  0.00    -0.029 A 
ATOM     35  C   UNL     1      -9.694 -11.556   4.567  0.00  0.00    +0.045 C 
ENDROOT
BRANCH  10   9
ATOM      4  C   UNL     1      -9.688 -12.349  -1.062  0.00  0.00    +0.077 A 
ATOM      5  C   UNL     1     -10.789 -11.459  -1.295  0.00  0.00    +0.048 A 
ATOM      6  C   UNL     1     -10.983 -10.410  -0.369  0.00  0.00    +0.116 A 
ATOM      7  N   UNL     1     -10.132 -10.271   0.707  0.00  0.00    -0.223 NA
ATOM      8  C   UNL     1      -9.081 -11.148   0.904  0.00  0.00    +0.220 A 
ATOM      9  N   UNL     1      -8.209 -11.021   1.974  0.00  0.00    -0.283 N 
ATOM     36  H   UNL     1      -7.451 -11.693   2.088  0.00  0.00    +0.155 HD
ATOM     37  N   UNL     1      -8.876 -12.159   0.034  0.00  0.00    -0.214 NA
BRANCH   4   3
ATOM      1  C   UNL     1      -9.987 -15.456  -3.420  0.00  0.00    +0.020 A 
ATOM      2  C   UNL     1     -10.365 -14.353  -2.566  0.00  0.00    +0.013 A 
ATOM      3  C   UNL     1      -9.352 -13.504  -1.953  0.00  0.00    +0.019 A 
ATOM     38  C   UNL     1      -7.953 -13.800  -2.226  0.00  0.00    +0.120 A 
ATOM     39  N   UNL     1      -7.619 -14.869  -3.051  0.00  0.00    -0.263 NA
ATOM     40  C   UNL     1      -8.586 -15.694  -3.646  0.00  0.00    +0.111 A 
ENDBRANCH   4   3
ENDBRANCH  10   9
BRANCH  12  13
ATOM     13  N   UNL     1      -7.409  -6.280   3.250  0.00  0.00    -0.281 N 
ATOM     14  C   UNL     1      -6.117  -5.823   3.454  0.00  0.00    +0.248 C 
ATOM     30  O   UNL     1      -5.267  -6.420   4.098  0.00  0.00    -0.270 OA
ATOM     31  H   UNL     1      -8.069  -5.602   2.867  0.00  0.00    +0.155 HD
BRANCH  14  15
ATOM     15  C   UNL     1      -5.716  -4.506   2.872  0.00  0.00    +0.037 A 
ATOM     16  C   UNL     1      -5.314  -4.387   1.468  0.00  0.00    +0.013 A 
ATOM     17  C   UNL     1      -4.916  -3.108   0.937  0.00  0.00    +0.005 A 
ATOM     18  C   UNL     1      -4.919  -1.937   1.810  0.00  0.00    -0.033 A 
ATOM     28  C   UNL     1      -5.327  -2.083   3.197  0.00  0.00    +0.005 A 
ATOM     29  C   UNL     1      -5.718  -3.335   3.722  0.00  0.00    +0.013 A 
BRANCH  18  19
ATOM     19  C   UNL     1      -4.488  -0.537   1.333  0.00  0.00    +0.119 C 
BRANCH  19  20
ATOM     20  N   UNL     1      -4.177  -0.374  -0.118  0.00  0.00    -0.302 NA
ATOM     21  C   UNL     1      -2.880   0.408  -0.344  0.00  0.00    +0.066 C 
ATOM     22  C   UNL     1      -2.558   0.549  -1.867  0.00  0.00    -0.064 C 
ATOM     23  N   UNL     1      -3.731   1.231  -2.573  0.00  0.00    +0.379 N 
ATOM     24  C   UNL     1      -3.407   1.417  -3.995  0.00  0.00    -0.096 C 
ATOM     25  H   UNL     1      -3.857   2.241  -2.119  0.00  0.00    -0.082 HD
ATOM     26  C   UNL     1      -5.026   0.461  -2.352  0.00  0.00    -0.064 C 
ATOM     27  C   UNL     1      -5.321   0.301  -0.834  0.00  0.00    +0.066 C 
ENDBRANCH  19  20
ENDBRANCH  18  19
ENDBRANCH  14  15
ENDBRANCH  12  13
TORSDOF 6
ENDMDL
MODEL 5
REMARK VINA RESULT:      -7.7      3.877     12.355
REMARK  Name = C:\Users\Docking\Desktop\test protocol\1iep_ligandH.pdb
REMARK  8 active torsions:
REMARK  status: ('A' for Active; 'I' for Inactive)
REMARK    1  A    between atoms: _5  and  _11
REMARK    2  A    between atoms: _19  and  _21
REMARK    3  A    between atoms: _22  and  _66
REMARK    4  A    between atoms: _27  and  _30
REMARK    5  A    between atoms: _32  and  _33
REMARK    6  A    between atoms: _38  and  _43
REMARK    7  A    between atoms: _43  and  _46
REMARK    8  A    between atoms: _53  and  _55
REMARK                            x       y       z     vdW  Elec       q    Type
REMARK                         _______ _______ _______ _____ _____    ______ ____
ROOT
ATOM     10  C   UNL     1      -7.503  -7.968   3.047  0.00  0.00    +0.038 A 
ATOM     11  C   UNL     1      -7.073  -6.686   2.618  0.00  0.00    +0.047 A 
ATOM     12  C   UNL     1      -7.202  -5.522   3.480  0.00  0.00    +0.035 A 
ATOM     32  C   UNL     1      -7.771  -5.700   4.775  0.00  0.00    +0.024 A 
ATOM     33  C   UNL     1      -8.214  -6.995   5.227  0.00  0.00    +0.007 A 
ATOM     34  C   UNL     1      -8.092  -8.147   4.379  0.00  0.00    -0.029 A 
ATOM     35  C   UNL     1      -8.590  -9.510   4.914  0.00  0.00    +0.045 C 
ENDROOT
BRANCH  10   9
ATOM      4  C   UNL     1      -9.109 -10.839  -0.448  0.00  0.00    +0.077 A 
ATOM      5  C   UNL     1     -10.357 -10.138  -0.532  0.00  0.00    +0.048 A 
ATOM      6  C   UNL     1     -10.550  -9.048   0.347  0.00  0.00    +0.116 A 
ATOM      7  N   UNL     1      -9.560  -8.695   1.239  0.00  0.00    -0.223 NA
ATOM      8  C   UNL     1      -8.368  -9.394   1.295  0.00  0.00    +0.220 A 
ATOM      9  N   UNL     1      -7.356  -9.052   2.178  0.00  0.00    -0.283 N 
ATOM     36  H   UNL     1      -6.494  -9.597   2.193  0.00  0.00    +0.155 HD
ATOM     37  N   UNL     1      -8.161 -10.439   0.467  0.00  0.00    -0.214 NA
BRANCH   4   3
ATOM      1  C   UNL     1      -9.289 -14.210  -2.425  0.00  0.00    +0.020 A 
ATOM      2  C   UNL     1      -9.680 -13.103  -1.583  0.00  0.00    +0.013 A 
ATOM      3  C   UNL     1      -8.755 -12.010  -1.312  0.00  0.00    +0.019 A 
ATOM     38  C   UNL     1      -7.432 -12.067  -1.915  0.00  0.00    +0.120 A 
ATOM     39  N   UNL     1      -7.082 -13.146  -2.720  0.00  0.00    -0.263 NA
ATOM     40  C   UNL     1      -7.964 -14.205  -2.986  0.00  0.00    +0.111 A 
ENDBRANCH   4   3
ENDBRANCH  10   9
BRANCH  12  13
ATOM     13  N   UNL     1      -6.790  -4.194   3.096  0.00  0.00    -0.281 N 
ATOM     14  C   UNL     1      -5.516  -3.759   2.769  0.00  0.00    +0.248 C 
ATOM     30  O   UNL     1      -4.495  -4.400   2.966  0.00  0.00    -0.270 OA
ATOM     31  H   UNL     1      -7.528  -3.490   3.060  0.00  0.00    +0.155 HD
BRANCH  14  15
ATOM     15  C   UNL     1      -5.352  -2.410   2.148  0.00  0.00    +0.037 A 
ATOM     16  C   UNL     1      -5.327  -2.242   0.692  0.00  0.00    +0.013 A 
ATOM     17  C   UNL     1      -5.150  -0.931   0.119  0.00  0.00    +0.005 A 
ATOM     18  C   UNL     1      -4.998   0.223   1.002  0.00  0.00    -0.033 A 
ATOM     28  C   UNL     1      -5.032   0.028   2.442  0.00  0.00    +0.005 A 
ATOM     29  C   UNL     1      -5.204  -1.255   3.008  0.00  0.00    +0.013 A 
BRANCH  18  19
ATOM     19  C   UNL     1      -4.783   1.655   0.477  0.00  0.00    +0.119 C 
BRANCH  19  20
ATOM     20  N   UNL     1      -3.423   1.999  -0.035  0.00  0.00    -0.302 NA
ATOM     21  C   UNL     1      -2.793   3.159   0.741  0.00  0.00    +0.066 C 
ATOM     22  C   UNL     1      -1.362   3.491   0.207  0.00  0.00    -0.064 C 
ATOM     23  N   UNL     1      -1.440   3.816  -1.286  0.00  0.00    +0.379 N 
ATOM     24  C   UNL     1      -0.105   4.185  -1.778  0.00  0.00    -0.096 C 
ATOM     25  H   UNL     1      -2.102   4.706  -1.403  0.00  0.00    -0.082 HD
ATOM     26  C   UNL     1      -2.067   2.669  -2.064  0.00  0.00    -0.064 C 
ATOM     27  C   UNL     1      -3.478   2.328  -1.506  0.00  0.00    +0.066 C 
ENDBRANCH  19  20
ENDBRANCH  18  19
ENDBRANCH  14  15
ENDBRANCH  12  13
TORSDOF 6
ENDMDL
