MODEL 1
REMARK VINA RESULT:      -8.4      0.000      0.000
REMARK  Name = C:\Users\Docking\Desktop\test protocol\1iep_ligandH.pdb
REMARK  8 active torsions:
REMARK  status: ('A' for Active; 'I' for Inactive)
REMARK    1  A    between atoms: _5  and  _11
REMARK    2  A    between atoms: _19  and  _21
REMARK    3  A    between atoms: _22  and  _66
REMARK    4  A    between atoms: _27  and  _30
REMARK    5  A    between atoms: _32  and  _33
REMARK    6  A    between atoms: _38  and  _43
REMARK    7  A    between atoms: _43  and  _46
REMARK    8  A    between atoms: _53  and  _55
REMARK                            x       y       z     vdW  Elec       q    Type
REMARK                         _______ _______ _______ _____ _____    ______ ____
ROOT
ATOM     10  C   UNL     1      20.289  25.689   3.729  0.00  0.00    +0.038 A 
ATOM     11  C   UNL     1      19.017  25.499   4.326  0.00  0.00    +0.047 A 
ATOM     12  C   UNL     1      18.347  24.209   4.273  0.00  0.00    +0.035 A 
ATOM     32  C   UNL     1      19.003  23.133   3.607  0.00  0.00    +0.024 A 
ATOM     33  C   UNL     1      20.296  23.309   2.994  0.00  0.00    +0.007 A 
ATOM     34  C   UNL     1      20.961  24.580   3.041  0.00  0.00    -0.029 A 
ATOM     35  C   UNL     1      22.343  24.713   2.361  0.00  0.00    +0.045 C 
ENDROOT
BRANCH  10   9
ATOM      4  C   UNL     1      21.484  29.936   1.839  0.00  0.00    +0.077 A 
ATOM      5  C   UNL     1      20.889  29.607   0.575  0.00  0.00    +0.048 A 
ATOM      6  C   UNL     1      20.293  28.332   0.451  0.00  0.00    +0.116 A 
ATOM      7  N   UNL     1      20.296  27.459   1.517  0.00  0.00    -0.223 NA
ATOM      8  C   UNL     1      20.880  27.807   2.722  0.00  0.00    +0.220 A 
ATOM      9  N   UNL     1      20.888  26.949   3.810  0.00  0.00    -0.283 N 
ATOM     36  H   UNL     1      21.335  27.240   4.679  0.00  0.00    +0.155 HD
ATOM     37  N   UNL     1      21.457  29.018   2.865  0.00  0.00    -0.214 NA
BRANCH   4   3
ATOM      1  C   UNL     1      23.788  33.087   1.588  0.00  0.00    +0.020 A 
ATOM      2  C   UNL     1      23.176  31.818   1.265  0.00  0.00    +0.013 A 
ATOM      3  C   UNL     1      22.150  31.245   2.127  0.00  0.00    +0.019 A 
ATOM     38  C   UNL     1      21.761  31.988   3.316  0.00  0.00    +0.120 A 
ATOM     39  N   UNL     1      22.368  33.206   3.603  0.00  0.00    -0.263 NA
ATOM     40  C   UNL     1      23.359  33.767   2.782  0.00  0.00    +0.111 A 
ENDBRANCH   4   3
ENDBRANCH  10   9
BRANCH  12  13
ATOM     13  N   UNL     1      17.051  23.958   4.854  0.00  0.00    -0.281 N 
ATOM     14  C   UNL     1      16.689  22.941   5.722  0.00  0.00    +0.248 C 
ATOM     30  O   UNL     1      17.378  21.962   5.965  0.00  0.00    -0.270 OA
ATOM     31  H   UNL     1      16.310  24.610   4.593  0.00  0.00    +0.155 HD
BRANCH  14  15
ATOM     15  C   UNL     1      15.363  23.016   6.409  0.00  0.00    +0.037 A 
ATOM     16  C   UNL     1      15.204  22.590   7.802  0.00  0.00    +0.013 A 
ATOM     17  C   UNL     1      13.911  22.656   8.435  0.00  0.00    +0.005 A 
ATOM     18  C   UNL     1      12.766  23.153   7.676  0.00  0.00    -0.033 A 
ATOM     28  C   UNL     1      12.953  23.574   6.297  0.00  0.00    +0.005 A 
ATOM     29  C   UNL     1      14.219  23.509   5.673  0.00  0.00    +0.013 A 
BRANCH  18  19
ATOM     19  C   UNL     1      11.345  23.239   8.264  0.00  0.00    +0.119 C 
BRANCH  19  20
ATOM     20  N   UNL     1      10.652  24.559   8.188  0.00  0.00    -0.302 NA
ATOM     21  C   UNL     1      11.391  25.643   8.978  0.00  0.00    +0.066 C 
ATOM     22  C   UNL     1      10.664  27.023   8.869  0.00  0.00    -0.064 C 
ATOM     23  N   UNL     1       9.224  26.878   9.364  0.00  0.00    +0.379 N 
ATOM     24  C   UNL     1       8.556  28.187   9.317  0.00  0.00    -0.096 C 
ATOM     25  H   UNL     1       9.265  26.557  10.431  0.00  0.00    -0.082 HD
ATOM     26  C   UNL     1       8.483  25.801   8.585  0.00  0.00    -0.064 C 
ATOM     27  C   UNL     1       9.229  24.440   8.676  0.00  0.00    +0.066 C 
ENDBRANCH  19  20
ENDBRANCH  18  19
ENDBRANCH  14  15
ENDBRANCH  12  13
TORSDOF 6
ENDMDL
MODEL 2
REMARK VINA RESULT:      -8.3      2.310     11.913
REMARK  Name = C:\Users\Docking\Desktop\test protocol\1iep_ligandH.pdb
REMARK  8 active torsions:
REMARK  status: ('A' for Active; 'I' for Inactive)
REMARK    1  A    between atoms: _5  and  _11
REMARK    2  A    between atoms: _19  and  _21
REMARK    3  A    between atoms: _22  and  _66
REMARK    4  A    between atoms: _27  and  _30
REMARK    5  A    between atoms: _32  and  _33
REMARK    6  A    between atoms: _38  and  _43
REMARK    7  A    between atoms: _43  and  _46
REMARK    8  A    between atoms: _53  and  _55
REMARK                            x       y       z     vdW  Elec       q    Type
REMARK                         _______ _______ _______ _____ _____    ______ ____
ROOT
ATOM     10  C   UNL     1      12.531  23.086   8.308  0.00  0.00    +0.038 A 
ATOM     11  C   UNL     1      13.742  23.444   7.663  0.00  0.00    +0.047 A 
ATOM     12  C   UNL     1      15.021  22.929   8.126  0.00  0.00    +0.035 A 
ATOM     32  C   UNL     1      15.029  22.049   9.247  0.00  0.00    +0.024 A 
ATOM     33  C   UNL     1      13.807  21.675   9.915  0.00  0.00    +0.007 A 
ATOM     34  C   UNL     1      12.543  22.183   9.464  0.00  0.00    -0.029 A 
ATOM     35  C   UNL     1      11.265  21.754  10.222  0.00  0.00    +0.045 C 
ENDROOT
BRANCH  10   9
ATOM      4  C   UNL     1       9.273  26.596   7.970  0.00  0.00    +0.077 A 
ATOM      5  C   UNL     1      10.011  27.446   8.859  0.00  0.00    +0.048 A 
ATOM      6  C   UNL     1      11.220  26.940   9.387  0.00  0.00    +0.116 A 
ATOM      7  N   UNL     1      11.650  25.677   9.044  0.00  0.00    -0.223 NA
ATOM      8  C   UNL     1      10.914  24.881   8.186  0.00  0.00    +0.220 A 
ATOM      9  N   UNL     1      11.331  23.611   7.821  0.00  0.00    -0.283 N 
ATOM     36  H   UNL     1      10.756  23.052   7.191  0.00  0.00    +0.155 HD
ATOM     37  N   UNL     1       9.755  25.341   7.669  0.00  0.00    -0.214 NA
BRANCH   4   3
ATOM      1  C   UNL     1       5.708  28.085   7.365  0.00  0.00    +0.020 A 
ATOM      2  C   UNL     1       6.939  27.729   8.031  0.00  0.00    +0.013 A 
ATOM      3  C   UNL     1       7.979  26.989   7.328  0.00  0.00    +0.019 A 
ATOM     38  C   UNL     1       7.740  26.622   5.940  0.00  0.00    +0.120 A 
ATOM     39  N   UNL     1       6.544  26.977   5.325  0.00  0.00    -0.263 NA
ATOM     40  C   UNL     1       5.535  27.688   5.992  0.00  0.00    +0.111 A 
ENDBRANCH   4   3
ENDBRANCH  10   9
BRANCH  12  13
ATOM     13  N   UNL     1      16.285  23.263   7.516  0.00  0.00    -0.281 N 
ATOM     14  C   UNL     1      17.090  22.457   6.729  0.00  0.00    +0.248 C 
ATOM     30  O   UNL     1      16.949  21.249   6.604  0.00  0.00    -0.270 OA
ATOM     31  H   UNL     1      16.627  24.209   7.686  0.00  0.00    +0.155 HD
BRANCH  14  15
ATOM     15  C   UNL     1      18.226  23.079   5.983  0.00  0.00    +0.037 A 
ATOM     16  C   UNL     1      19.614  22.694   6.251  0.00  0.00    +0.013 A 
ATOM     17  C   UNL     1      20.692  23.322   5.530  0.00  0.00    +0.005 A 
ATOM     18  C   UNL     1      20.385  24.343   4.531  0.00  0.00    -0.033 A 
ATOM     28  C   UNL     1      18.999  24.703   4.281  0.00  0.00    +0.005 A 
ATOM     29  C   UNL     1      17.940  24.090   4.987  0.00  0.00    +0.013 A 
BRANCH  18  19
ATOM     19  C   UNL     1      21.473  25.081   3.728  0.00  0.00    +0.119 C 
BRANCH  19  20
ATOM     20  N   UNL     1      21.016  26.037   2.675  0.00  0.00    -0.302 NA
ATOM     21  C   UNL     1      21.926  26.013   1.444  0.00  0.00    +0.066 C 
ATOM     22  C   UNL     1      21.420  27.002   0.343  0.00  0.00    -0.064 C 
ATOM     23  N   UNL     1      21.338  28.412   0.928  0.00  0.00    +0.379 N 
ATOM     24  C   UNL     1      20.919  29.354  -0.120  0.00  0.00    -0.096 C 
ATOM     25  H   UNL     1      22.364  28.703   1.254  0.00  0.00    -0.082 HD
ATOM     26  C   UNL     1      20.437  28.445   2.155  0.00  0.00    -0.064 C 
ATOM     27  C   UNL     1      20.932  27.437   3.230  0.00  0.00    +0.066 C 
ENDBRANCH  19  20
ENDBRANCH  18  19
ENDBRANCH  14  15
ENDBRANCH  12  13
TORSDOF 6
ENDMDL
MODEL 3
REMARK VINA RESULT:      -8.2      0.506      1.171
REMARK  Name = C:\Users\Docking\Desktop\test protocol\1iep_ligandH.pdb
REMARK  8 active torsions:
REMARK  status: ('A' for Active; 'I' for Inactive)
REMARK    1  A    between atoms: _5  and  _11
REMARK    2  A    between atoms: _19  and  _21
REMARK    3  A    between atoms: _22  and  _66
REMARK    4  A    between atoms: _27  and  _30
REMARK    5  A    between atoms: _32  and  _33
REMARK    6  A    between atoms: _38  and  _43
REMARK    7  A    between atoms: _43  and  _46
REMARK    8  A    between atoms: _53  and  _55
REMARK                            x       y       z     vdW  Elec       q    Type
REMARK                         _______ _______ _______ _____ _____    ______ ____
ROOT
ATOM     10  C   UNL     1      20.265  25.701   3.759  0.00  0.00    +0.038 A 
ATOM     11  C   UNL     1      18.959  25.515   4.279  0.00  0.00    +0.047 A 
ATOM     12  C   UNL     1      18.300  24.220   4.212  0.00  0.00    +0.035 A 
ATOM     32  C   UNL     1      19.002  23.135   3.610  0.00  0.00    +0.024 A 
ATOM     33  C   UNL     1      20.330  23.307   3.076  0.00  0.00    +0.007 A 
ATOM     34  C   UNL     1      20.984  24.583   3.137  0.00  0.00    -0.029 A 
ATOM     35  C   UNL     1      22.405  24.711   2.542  0.00  0.00    +0.045 C 
ENDROOT
BRANCH  10   9
ATOM      4  C   UNL     1      21.505  29.937   1.873  0.00  0.00    +0.077 A 
ATOM      5  C   UNL     1      20.965  29.591   0.590  0.00  0.00    +0.048 A 
ATOM      6  C   UNL     1      20.383  28.310   0.455  0.00  0.00    +0.116 A 
ATOM      7  N   UNL     1      20.349  27.449   1.530  0.00  0.00    -0.223 NA
ATOM      8  C   UNL     1      20.881  27.814   2.753  0.00  0.00    +0.220 A 
ATOM      9  N   UNL     1      20.851  26.966   3.850  0.00  0.00    -0.283 N 
ATOM     36  H   UNL     1      21.260  27.270   4.733  0.00  0.00    +0.155 HD
ATOM     37  N   UNL     1      21.443  29.030   2.907  0.00  0.00    -0.214 NA
BRANCH   4   3
ATOM      1  C   UNL     1      22.545  33.267   3.642  0.00  0.00    +0.020 A 
ATOM      2  C   UNL     1      21.896  31.999   3.400  0.00  0.00    +0.013 A 
ATOM      3  C   UNL     1      22.150  31.255   2.174  0.00  0.00    +0.019 A 
ATOM     38  C   UNL     1      23.074  31.825   1.205  0.00  0.00    +0.120 A 
ATOM     39  N   UNL     1      23.683  33.049   1.464  0.00  0.00    -0.263 NA
ATOM     40  C   UNL     1      23.445  33.775   2.640  0.00  0.00    +0.111 A 
ENDBRANCH   4   3
ENDBRANCH  10   9
BRANCH  12  13
ATOM     13  N   UNL     1      16.971  23.974   4.716  0.00  0.00    -0.281 N 
ATOM     14  C   UNL     1      16.551  22.941   5.538  0.00  0.00    +0.248 C 
ATOM     30  O   UNL     1      17.214  21.946   5.792  0.00  0.00    -0.270 OA
ATOM     31  H   UNL     1      16.254  24.641   4.432  0.00  0.00    +0.155 HD
BRANCH  14  15
ATOM     15  C   UNL     1      15.191  23.017   6.154  0.00  0.00    +0.037 A 
ATOM     16  C   UNL     1      13.998  23.246   5.336  0.00  0.00    +0.013 A 
ATOM     17  C   UNL     1      12.700  23.332   5.958  0.00  0.00    +0.005 A 
ATOM     18  C   UNL     1      12.590  23.187   7.408  0.00  0.00    -0.033 A 
ATOM     28  C   UNL     1      13.790  22.955   8.195  0.00  0.00    +0.005 A 
ATOM     29  C   UNL     1      15.063  22.872   7.589  0.00  0.00    +0.013 A 
BRANCH  18  19
ATOM     19  C   UNL     1      11.249  23.286   8.159  0.00  0.00    +0.119 C 
BRANCH  19  20
ATOM     20  N   UNL     1      10.527  24.592   8.100  0.00  0.00    -0.302 NA
ATOM     21  C   UNL     1      11.296  25.707   8.814  0.00  0.00    +0.066 C 
ATOM     22  C   UNL     1      10.537  27.070   8.723  0.00  0.00    -0.064 C 
ATOM     23  N   UNL     1       9.137  26.912   9.318  0.00  0.00    +0.379 N 
ATOM     24  C   UNL     1       8.441  28.207   9.286  0.00  0.00    -0.096 C 
ATOM     25  H   UNL     1       9.254  26.617  10.386  0.00  0.00    -0.082 HD
ATOM     26  C   UNL     1       8.366  25.804   8.615  0.00  0.00    -0.064 C 
ATOM     27  C   UNL     1       9.142  24.460   8.685  0.00  0.00    +0.066 C 
ENDBRANCH  19  20
ENDBRANCH  18  19
ENDBRANCH  14  15
ENDBRANCH  12  13
TORSDOF 6
ENDMDL
MODEL 4
REMARK VINA RESULT:      -8.2      3.466     12.386
REMARK  Name = C:\Users\Docking\Desktop\test protocol\1iep_ligandH.pdb
REMARK  8 active torsions:
REMARK  status: ('A' for Active; 'I' for Inactive)
REMARK    1  A    between atoms: _5  and  _11
REMARK    2  A    between atoms: _19  and  _21
REMARK    3  A    between atoms: _22  and  _66
REMARK    4  A    between atoms: _27  and  _30
REMARK    5  A    between atoms: _32  and  _33
REMARK    6  A    between atoms: _38  and  _43
REMARK    7  A    between atoms: _43  and  _46
REMARK    8  A    between atoms: _53  and  _55
REMARK                            x       y       z     vdW  Elec       q    Type
REMARK                         _______ _______ _______ _____ _____    ______ ____
ROOT
ATOM     10  C   UNL     1      12.711  23.114   8.245  0.00  0.00    +0.038 A 
ATOM     11  C   UNL     1      13.908  23.451   7.562  0.00  0.00    +0.047 A 
ATOM     12  C   UNL     1      15.196  22.941   8.006  0.00  0.00    +0.035 A 
ATOM     32  C   UNL     1      15.228  22.088   9.147  0.00  0.00    +0.024 A 
ATOM     33  C   UNL     1      14.022  21.736   9.853  0.00  0.00    +0.007 A 
ATOM     34  C   UNL     1      12.748  22.238   9.422  0.00  0.00    -0.029 A 
ATOM     35  C   UNL     1      11.488  21.833  10.221  0.00  0.00    +0.045 C 
ENDROOT
BRANCH  10   9
ATOM      4  C   UNL     1       9.418  26.595   7.976  0.00  0.00    +0.077 A 
ATOM      5  C   UNL     1      10.156  27.444   8.867  0.00  0.00    +0.048 A 
ATOM      6  C   UNL     1      11.375  26.944   9.378  0.00  0.00    +0.116 A 
ATOM      7  N   UNL     1      11.813  25.688   9.018  0.00  0.00    -0.223 NA
ATOM      8  C   UNL     1      11.076  24.895   8.158  0.00  0.00    +0.220 A 
ATOM      9  N   UNL     1      11.502  23.632   7.776  0.00  0.00    -0.283 N 
ATOM     36  H   UNL     1      10.926  23.075   7.145  0.00  0.00    +0.155 HD
ATOM     37  N   UNL     1       9.908  25.349   7.657  0.00  0.00    -0.214 NA
BRANCH   4   3
ATOM      1  C   UNL     1       5.847  28.088   7.410  0.00  0.00    +0.020 A 
ATOM      2  C   UNL     1       7.089  27.738   8.060  0.00  0.00    +0.013 A 
ATOM      3  C   UNL     1       8.114  26.983   7.351  0.00  0.00    +0.019 A 
ATOM     38  C   UNL     1       7.849  26.595   5.974  0.00  0.00    +0.120 A 
ATOM     39  N   UNL     1       6.643  26.945   5.374  0.00  0.00    -0.263 NA
ATOM     40  C   UNL     1       5.649  27.670   6.048  0.00  0.00    +0.111 A 
ENDBRANCH   4   3
ENDBRANCH  10   9
BRANCH  12  13
ATOM     13  N   UNL     1      16.445  23.256   7.358  0.00  0.00    -0.281 N 
ATOM     14  C   UNL     1      17.009  22.641   6.252  0.00  0.00    +0.248 C 
ATOM     30  O   UNL     1      16.624  21.582   5.778  0.00  0.00    -0.270 OA
ATOM     31  H   UNL     1      16.979  24.025   7.764  0.00  0.00    +0.155 HD
BRANCH  14  15
ATOM     15  C   UNL     1      18.179  23.289   5.584  0.00  0.00    +0.037 A 
ATOM     16  C   UNL     1      19.553  22.934   5.946  0.00  0.00    +0.013 A 
ATOM     17  C   UNL     1      20.664  23.586   5.298  0.00  0.00    +0.005 A 
ATOM     18  C   UNL     1      20.403  24.601   4.280  0.00  0.00    -0.033 A 
ATOM     28  C   UNL     1      19.030  24.930   3.936  0.00  0.00    +0.005 A 
ATOM     29  C   UNL     1      17.939  24.293   4.570  0.00  0.00    +0.013 A 
BRANCH  18  19
ATOM     19  C   UNL     1      21.526  25.363   3.552  0.00  0.00    +0.119 C 
BRANCH  19  20
ATOM     20  N   UNL     1      22.052  24.764   2.289  0.00  0.00    -0.302 NA
ATOM     21  C   UNL     1      23.169  23.752   2.555  0.00  0.00    +0.066 C 
ATOM     22  C   UNL     1      23.692  23.119   1.225  0.00  0.00    -0.064 C 
ATOM     23  N   UNL     1      24.179  24.229   0.291  0.00  0.00    +0.379 N 
ATOM     24  C   UNL     1      24.724  23.633  -0.937  0.00  0.00    -0.096 C 
ATOM     25  H   UNL     1      25.010  24.764   0.807  0.00  0.00    -0.082 HD
ATOM     26  C   UNL     1      23.074  25.242   0.024  0.00  0.00    -0.064 C 
ATOM     27  C   UNL     1      22.541  25.843   1.354  0.00  0.00    +0.066 C 
ENDBRANCH  19  20
ENDBRANCH  18  19
ENDBRANCH  14  15
ENDBRANCH  12  13
TORSDOF 6
ENDMDL
MODEL 5
REMARK VINA RESULT:      -7.9      9.572     14.398
REMARK  Name = C:\Users\Docking\Desktop\test protocol\1iep_ligandH.pdb
REMARK  8 active torsions:
REMARK  status: ('A' for Active; 'I' for Inactive)
REMARK    1  A    between atoms: _5  and  _11
REMARK    2  A    between atoms: _19  and  _21
REMARK    3  A    between atoms: _22  and  _66
REMARK    4  A    between atoms: _27  and  _30
REMARK    5  A    between atoms: _32  and  _33
REMARK    6  A    between atoms: _38  and  _43
REMARK    7  A    between atoms: _43  and  _46
REMARK    8  A    between atoms: _53  and  _55
REMARK                            x       y       z     vdW  Elec       q    Type
REMARK                         _______ _______ _______ _____ _____    ______ ____
ROOT
ATOM     10  C   UNL     1       9.378  25.381   8.384  0.00  0.00    +0.038 A 
ATOM     11  C   UNL     1       8.049  25.874   8.347  0.00  0.00    +0.047 A 
ATOM     12  C   UNL     1       7.778  27.295   8.190  0.00  0.00    +0.035 A 
ATOM     32  C   UNL     1       8.885  28.185   8.070  0.00  0.00    +0.024 A 
ATOM     33  C   UNL     1      10.243  27.700   8.107  0.00  0.00    +0.007 A 
ATOM     34  C   UNL     1      10.516  26.300   8.265  0.00  0.00    -0.029 A 
ATOM     35  C   UNL     1      11.991  25.837   8.304  0.00  0.00    +0.045 C 
ENDROOT
BRANCH  10   9
ATOM      4  C   UNL     1      10.702  21.559  10.969  0.00  0.00    +0.077 A 
ATOM      5  C   UNL     1      11.045  22.370  12.101  0.00  0.00    +0.048 A 
ATOM      6  C   UNL     1      10.873  23.767  11.975  0.00  0.00    +0.116 A 
ATOM      7  N   UNL     1      10.392  24.302  10.800  0.00  0.00    -0.223 NA
ATOM      8  C   UNL     1      10.072  23.491   9.726  0.00  0.00    +0.220 A 
ATOM      9  N   UNL     1       9.580  24.007   8.537  0.00  0.00    -0.283 N 
ATOM     36  H   UNL     1       9.363  23.377   7.765  0.00  0.00    +0.155 HD
ATOM     37  N   UNL     1      10.229  22.155   9.820  0.00  0.00    -0.214 NA
BRANCH   4   3
ATOM      1  C   UNL     1      10.091  17.753  11.635  0.00  0.00    +0.020 A 
ATOM      2  C   UNL     1       9.929  19.188  11.689  0.00  0.00    +0.013 A 
ATOM      3  C   UNL     1      10.825  20.067  10.948  0.00  0.00    +0.019 A 
ATOM     38  C   UNL     1      11.883  19.458  10.156  0.00  0.00    +0.120 A 
ATOM     39  N   UNL     1      12.016  18.073  10.125  0.00  0.00    -0.263 NA
ATOM     40  C   UNL     1      11.161  17.217  10.835  0.00  0.00    +0.111 A 
ENDBRANCH   4   3
ENDBRANCH  10   9
BRANCH  12  13
ATOM     13  N   UNL     1       6.450  27.855   8.153  0.00  0.00    -0.281 N 
ATOM     14  C   UNL     1       5.449  27.614   7.226  0.00  0.00    +0.248 C 
ATOM     30  O   UNL     1       5.618  27.040   6.160  0.00  0.00    -0.270 OA
ATOM     31  H   UNL     1       6.220  28.509   8.902  0.00  0.00    +0.155 HD
BRANCH  14  15
ATOM     15  C   UNL     1       4.064  28.093   7.518  0.00  0.00    +0.037 A 
ATOM     16  C   UNL     1       3.781  29.514   7.737  0.00  0.00    +0.013 A 
ATOM     17  C   UNL     1       2.439  29.947   8.034  0.00  0.00    +0.005 A 
ATOM     18  C   UNL     1       1.368  28.957   8.112  0.00  0.00    -0.033 A 
ATOM     28  C   UNL     1       1.675  27.554   7.885  0.00  0.00    +0.005 A 
ATOM     29  C   UNL     1       2.990  27.126   7.595  0.00  0.00    +0.013 A 
BRANCH  18  19
ATOM     19  C   UNL     1      -0.090  29.326   8.444  0.00  0.00    +0.119 C 
BRANCH  19  20
ATOM     20  N   UNL     1      -0.450  29.461   9.887  0.00  0.00    -0.302 NA
ATOM     21  C   UNL     1      -1.292  28.282  10.382  0.00  0.00    +0.066 C 
ATOM     22  C   UNL     1      -1.640  28.428  11.899  0.00  0.00    -0.064 C 
ATOM     23  N   UNL     1      -2.374  29.750  12.127  0.00  0.00    +0.379 N 
ATOM     24  C   UNL     1      -2.753  29.864  13.542  0.00  0.00    -0.096 C 
ATOM     25  H   UNL     1      -3.312  29.724  11.526  0.00  0.00    -0.082 HD
ATOM     26  C   UNL     1      -1.544  30.928  11.635  0.00  0.00    -0.064 C 
ATOM     27  C   UNL     1      -1.179  30.759  10.134  0.00  0.00    +0.066 C 
ENDBRANCH  19  20
ENDBRANCH  18  19
ENDBRANCH  14  15
ENDBRANCH  12  13
TORSDOF 6
ENDMDL
