MODEL 1
REMARK VINA RESULT:      -8.8      0.000      0.000
REMARK  Name = C:\Users\Docking\Desktop\test protocol\1iep_ligandH.pdb
REMARK  8 active torsions:
REMARK  status: ('A' for Active; 'I' for Inactive)
REMARK    1  A    between atoms: _5  and  _11
REMARK    2  A    between atoms: _19  and  _21
REMARK    3  A    between atoms: _22  and  _66
REMARK    4  A    between atoms: _27  and  _30
REMARK    5  A    between atoms: _32  and  _33
REMARK    6  A    between atoms: _38  and  _43
REMARK    7  A    between atoms: _43  and  _46
REMARK    8  A    between atoms: _53  and  _55
REMARK                            x       y       z     vdW  Elec       q    Type
REMARK                         _______ _______ _______ _____ _____    ______ ____
ROOT
ATOM     10  C   UNL     1      20.060  29.791  21.955  0.00  0.00    +0.038 A 
ATOM     11  C   UNL     1      20.512  29.850  20.612  0.00  0.00    +0.047 A 
ATOM     12  C   UNL     1      19.893  30.747  19.649  0.00  0.00    +0.035 A 
ATOM     32  C   UNL     1      18.817  31.572  20.088  0.00  0.00    +0.024 A 
ATOM     33  C   UNL     1      18.344  31.524  21.449  0.00  0.00    +0.007 A 
ATOM     34  C   UNL     1      18.949  30.640  22.404  0.00  0.00    -0.029 A 
ATOM     35  C   UNL     1      18.397  30.625  23.848  0.00  0.00    +0.045 C 
ENDROOT
BRANCH  10   9
ATOM      4  C   UNL     1      20.135  25.805  24.628  0.00  0.00    +0.077 A 
ATOM      5  C   UNL     1      18.794  25.458  24.254  0.00  0.00    +0.048 A 
ATOM      6  C   UNL     1      18.117  26.336  23.378  0.00  0.00    +0.116 A 
ATOM      7  N   UNL     1      18.744  27.473  22.916  0.00  0.00    -0.223 NA
ATOM      8  C   UNL     1      20.038  27.778  23.297  0.00  0.00    +0.220 A 
ATOM      9  N   UNL     1      20.691  28.912  22.838  0.00  0.00    -0.283 N 
ATOM     36  H   UNL     1      21.643  29.106  23.149  0.00  0.00    +0.155 HD
ATOM     37  N   UNL     1      20.705  26.957  24.134  0.00  0.00    -0.214 NA
BRANCH   4   3
ATOM      1  C   UNL     1      21.319  23.547  27.595  0.00  0.00    +0.020 A 
ATOM      2  C   UNL     1      20.459  24.338  26.744  0.00  0.00    +0.013 A 
ATOM      3  C   UNL     1      20.982  24.976  25.543  0.00  0.00    +0.019 A 
ATOM     38  C   UNL     1      22.391  24.794  25.228  0.00  0.00    +0.120 A 
ATOM     39  N   UNL     1      23.195  24.028  26.066  0.00  0.00    -0.263 NA
ATOM     40  C   UNL     1      22.704  23.410  27.226  0.00  0.00    +0.111 A 
ENDBRANCH   4   3
ENDBRANCH  10   9
BRANCH  12  13
ATOM     13  N   UNL     1      20.303  30.844  18.270  0.00  0.00    -0.281 N 
ATOM     14  C   UNL     1      20.890  31.924  17.630  0.00  0.00    +0.248 C 
ATOM     30  O   UNL     1      20.956  33.051  18.097  0.00  0.00    -0.270 OA
ATOM     31  H   UNL     1      20.142  30.016  17.696  0.00  0.00    +0.155 HD
BRANCH  14  15
ATOM     15  C   UNL     1      21.475  31.726  16.269  0.00  0.00    +0.037 A 
ATOM     16  C   UNL     1      20.875  30.792  15.312  0.00  0.00    +0.013 A 
ATOM     17  C   UNL     1      21.470  30.608  14.012  0.00  0.00    +0.005 A 
ATOM     18  C   UNL     1      22.672  31.360  13.661  0.00  0.00    -0.033 A 
ATOM     28  C   UNL     1      23.243  32.284  14.628  0.00  0.00    +0.005 A 
ATOM     29  C   UNL     1      22.663  32.466  15.903  0.00  0.00    +0.013 A 
BRANCH  18  19
ATOM     19  C   UNL     1      23.385  31.211  12.305  0.00  0.00    +0.119 C 
BRANCH  19  20
ATOM     20  N   UNL     1      23.200  32.309  11.310  0.00  0.00    -0.302 NA
ATOM     21  C   UNL     1      21.723  32.658  11.108  0.00  0.00    +0.066 C 
ATOM     22  C   UNL     1      21.548  33.823  10.081  0.00  0.00    -0.064 C 
ATOM     23  N   UNL     1      22.198  33.431   8.753  0.00  0.00    +0.379 N 
ATOM     24  C   UNL     1      21.986  34.501   7.767  0.00  0.00    -0.096 C 
ATOM     25  H   UNL     1      21.679  32.518   8.379  0.00  0.00    -0.082 HD
ATOM     26  C   UNL     1      23.667  33.080   8.945  0.00  0.00    -0.064 C 
ATOM     27  C   UNL     1      23.831  31.941   9.989  0.00  0.00    +0.066 C 
ENDBRANCH  19  20
ENDBRANCH  18  19
ENDBRANCH  14  15
ENDBRANCH  12  13
TORSDOF 6
ENDMDL
MODEL 2
REMARK VINA RESULT:      -8.6      1.688      2.773
REMARK  Name = C:\Users\Docking\Desktop\test protocol\1iep_ligandH.pdb
REMARK  8 active torsions:
REMARK  status: ('A' for Active; 'I' for Inactive)
REMARK    1  A    between atoms: _5  and  _11
REMARK    2  A    between atoms: _19  and  _21
REMARK    3  A    between atoms: _22  and  _66
REMARK    4  A    between atoms: _27  and  _30
REMARK    5  A    between atoms: _32  and  _33
REMARK    6  A    between atoms: _38  and  _43
REMARK    7  A    between atoms: _43  and  _46
REMARK    8  A    between atoms: _53  and  _55
REMARK                            x       y       z     vdW  Elec       q    Type
REMARK                         _______ _______ _______ _____ _____    ______ ____
ROOT
ATOM     10  C   UNL     1      20.023  30.132  22.082  0.00  0.00    +0.038 A 
ATOM     11  C   UNL     1      20.338  30.168  20.700  0.00  0.00    +0.047 A 
ATOM     12  C   UNL     1      19.708  31.131  19.810  0.00  0.00    +0.035 A 
ATOM     32  C   UNL     1      18.764  32.045  20.362  0.00  0.00    +0.024 A 
ATOM     33  C   UNL     1      18.431  32.021  21.764  0.00  0.00    +0.007 A 
ATOM     34  C   UNL     1      19.047  31.072  22.647  0.00  0.00    -0.029 A 
ATOM     35  C   UNL     1      18.647  31.088  24.141  0.00  0.00    +0.045 C 
ENDROOT
BRANCH  10   9
ATOM      4  C   UNL     1      20.089  25.972  24.475  0.00  0.00    +0.077 A 
ATOM      5  C   UNL     1      18.737  25.669  24.104  0.00  0.00    +0.048 A 
ATOM      6  C   UNL     1      18.057  26.613  23.303  0.00  0.00    +0.116 A 
ATOM      7  N   UNL     1      18.692  27.770  22.908  0.00  0.00    -0.223 NA
ATOM      8  C   UNL     1      19.996  28.033  23.284  0.00  0.00    +0.220 A 
ATOM      9  N   UNL     1      20.657  29.186  22.891  0.00  0.00    -0.283 N 
ATOM     36  H   UNL     1      21.617  29.346  23.196  0.00  0.00    +0.155 HD
ATOM     37  N   UNL     1      20.667  27.147  24.050  0.00  0.00    -0.214 NA
BRANCH   4   3
ATOM      1  C   UNL     1      21.295  23.502  27.259  0.00  0.00    +0.020 A 
ATOM      2  C   UNL     1      20.430  24.360  26.481  0.00  0.00    +0.013 A 
ATOM      3  C   UNL     1      20.941  25.072  25.316  0.00  0.00    +0.019 A 
ATOM     38  C   UNL     1      22.340  24.892  24.962  0.00  0.00    +0.120 A 
ATOM     39  N   UNL     1      23.149  24.061  25.730  0.00  0.00    -0.263 NA
ATOM     40  C   UNL     1      22.670  23.372  26.855  0.00  0.00    +0.111 A 
ENDBRANCH   4   3
ENDBRANCH  10   9
BRANCH  12  13
ATOM     13  N   UNL     1      19.983  31.210  18.396  0.00  0.00    -0.281 N 
ATOM     14  C   UNL     1      20.768  32.138  17.731  0.00  0.00    +0.248 C 
ATOM     30  O   UNL     1      21.184  33.174  18.228  0.00  0.00    -0.270 OA
ATOM     31  H   UNL     1      19.545  30.495  17.815  0.00  0.00    +0.155 HD
BRANCH  14  15
ATOM     15  C   UNL     1      21.131  31.885  16.304  0.00  0.00    +0.037 A 
ATOM     16  C   UNL     1      22.495  32.106  15.817  0.00  0.00    +0.013 A 
ATOM     17  C   UNL     1      22.815  31.871  14.431  0.00  0.00    +0.005 A 
ATOM     18  C   UNL     1      21.768  31.410  13.522  0.00  0.00    -0.033 A 
ATOM     28  C   UNL     1      20.425  31.194  14.033  0.00  0.00    +0.005 A 
ATOM     29  C   UNL     1      20.107  31.425  15.391  0.00  0.00    +0.013 A 
BRANCH  18  19
ATOM     19  C   UNL     1      22.014  31.154  12.024  0.00  0.00    +0.119 C 
BRANCH  19  20
ATOM     20  N   UNL     1      22.546  29.813  11.638  0.00  0.00    -0.302 NA
ATOM     21  C   UNL     1      22.103  28.717  12.611  0.00  0.00    +0.066 C 
ATOM     22  C   UNL     1      22.649  27.317  12.179  0.00  0.00    -0.064 C 
ATOM     23  N   UNL     1      24.175  27.375  12.087  0.00  0.00    +0.379 N 
ATOM     24  C   UNL     1      24.695  26.045  11.738  0.00  0.00    -0.096 C 
ATOM     25  H   UNL     1      24.565  27.636  13.098  0.00  0.00    -0.082 HD
ATOM     26  C   UNL     1      24.624  28.464  11.123  0.00  0.00    -0.064 C 
ATOM     27  C   UNL     1      24.052  29.846  11.544  0.00  0.00    +0.066 C 
ENDBRANCH  19  20
ENDBRANCH  18  19
ENDBRANCH  14  15
ENDBRANCH  12  13
TORSDOF 6
ENDMDL
MODEL 3
REMARK VINA RESULT:      -8.4     13.638     17.963
REMARK  Name = C:\Users\Docking\Desktop\test protocol\1iep_ligandH.pdb
REMARK  8 active torsions:
REMARK  status: ('A' for Active; 'I' for Inactive)
REMARK    1  A    between atoms: _5  and  _11
REMARK    2  A    between atoms: _19  and  _21
REMARK    3  A    between atoms: _22  and  _66
REMARK    4  A    between atoms: _27  and  _30
REMARK    5  A    between atoms: _32  and  _33
REMARK    6  A    between atoms: _38  and  _43
REMARK    7  A    between atoms: _43  and  _46
REMARK    8  A    between atoms: _53  and  _55
REMARK                            x       y       z     vdW  Elec       q    Type
REMARK                         _______ _______ _______ _____ _____    ______ ____
ROOT
ATOM     10  C   UNL     1      27.610  19.523  29.380  0.00  0.00    +0.038 A 
ATOM     11  C   UNL     1      26.226  19.805  29.502  0.00  0.00    +0.047 A 
ATOM     12  C   UNL     1      25.743  21.172  29.613  0.00  0.00    +0.035 A 
ATOM     32  C   UNL     1      26.698  22.230  29.593  0.00  0.00    +0.024 A 
ATOM     33  C   UNL     1      28.110  21.962  29.471  0.00  0.00    +0.007 A 
ATOM     34  C   UNL     1      28.592  20.614  29.364  0.00  0.00    -0.029 A 
ATOM     35  C   UNL     1      30.117  20.386  29.242  0.00  0.00    +0.045 C 
ENDROOT
BRANCH  10   9
ATOM      4  C   UNL     1      28.974  15.352  31.324  0.00  0.00    +0.077 A 
ATOM      5  C   UNL     1      28.892  15.878  32.656  0.00  0.00    +0.048 A 
ATOM      6  C   UNL     1      28.502  17.229  32.797  0.00  0.00    +0.116 A 
ATOM      7  N   UNL     1      28.218  17.987  31.682  0.00  0.00    -0.223 NA
ATOM      8  C   UNL     1      28.308  17.449  30.412  0.00  0.00    +0.220 A 
ATOM      9  N   UNL     1      28.018  18.191  29.277  0.00  0.00    -0.283 N 
ATOM     36  H   UNL     1      28.104  17.760  28.357  0.00  0.00    +0.155 HD
ATOM     37  N   UNL     1      28.679  16.162  30.250  0.00  0.00    -0.214 NA
BRANCH   4   3
ATOM      1  C   UNL     1      30.101  12.125  29.422  0.00  0.00    +0.020 A 
ATOM      2  C   UNL     1      29.727  13.498  29.670  0.00  0.00    +0.013 A 
ATOM      3  C   UNL     1      29.368  13.942  31.011  0.00  0.00    +0.019 A 
ATOM     38  C   UNL     1      29.399  12.963  32.088  0.00  0.00    +0.120 A 
ATOM     39  N   UNL     1      29.762  11.647  31.819  0.00  0.00    -0.263 NA
ATOM     40  C   UNL     1      30.108  11.208  30.532  0.00  0.00    +0.111 A 
ENDBRANCH   4   3
ENDBRANCH  10   9
BRANCH  12  13
ATOM     13  N   UNL     1      24.350  21.519  29.747  0.00  0.00    -0.281 N 
ATOM     14  C   UNL     1      23.654  22.522  29.091  0.00  0.00    +0.248 C 
ATOM     30  O   UNL     1      24.178  23.416  28.444  0.00  0.00    -0.270 OA
ATOM     31  H   UNL     1      23.810  20.957  30.405  0.00  0.00    +0.155 HD
BRANCH  14  15
ATOM     15  C   UNL     1      22.162  22.543  29.179  0.00  0.00    +0.037 A 
ATOM     16  C   UNL     1      21.364  23.435  28.335  0.00  0.00    +0.013 A 
ATOM     17  C   UNL     1      19.927  23.447  28.452  0.00  0.00    +0.005 A 
ATOM     18  C   UNL     1      19.280  22.562  29.417  0.00  0.00    -0.033 A 
ATOM     28  C   UNL     1      20.096  21.684  30.239  0.00  0.00    +0.005 A 
ATOM     29  C   UNL     1      21.504  21.670  30.128  0.00  0.00    +0.013 A 
BRANCH  18  19
ATOM     19  C   UNL     1      17.754  22.524  29.625  0.00  0.00    +0.119 C 
BRANCH  19  20
ATOM     20  N   UNL     1      17.181  23.440  30.656  0.00  0.00    -0.302 NA
ATOM     21  C   UNL     1      17.298  22.860  32.068  0.00  0.00    +0.066 C 
ATOM     22  C   UNL     1      16.714  23.840  33.137  0.00  0.00    -0.064 C 
ATOM     23  N   UNL     1      15.255  24.150  32.798  0.00  0.00    +0.379 N 
ATOM     24  C   UNL     1      14.686  25.026  33.833  0.00  0.00    -0.096 C 
ATOM     25  H   UNL     1      14.692  23.188  32.821  0.00  0.00    -0.082 HD
ATOM     26  C   UNL     1      15.129  24.725  31.394  0.00  0.00    -0.064 C 
ATOM     27  C   UNL     1      15.739  23.755  30.343  0.00  0.00    +0.066 C 
ENDBRANCH  19  20
ENDBRANCH  18  19
ENDBRANCH  14  15
ENDBRANCH  12  13
TORSDOF 6
ENDMDL
MODEL 4
REMARK VINA RESULT:      -8.2      4.048     12.658
REMARK  Name = C:\Users\Docking\Desktop\test protocol\1iep_ligandH.pdb
REMARK  8 active torsions:
REMARK  status: ('A' for Active; 'I' for Inactive)
REMARK    1  A    between atoms: _5  and  _11
REMARK    2  A    between atoms: _19  and  _21
REMARK    3  A    between atoms: _22  and  _66
REMARK    4  A    between atoms: _27  and  _30
REMARK    5  A    between atoms: _32  and  _33
REMARK    6  A    between atoms: _38  and  _43
REMARK    7  A    between atoms: _43  and  _46
REMARK    8  A    between atoms: _53  and  _55
REMARK                            x       y       z     vdW  Elec       q    Type
REMARK                         _______ _______ _______ _____ _____    ______ ____
ROOT
ATOM     10  C   UNL     1      22.665  30.275  12.392  0.00  0.00    +0.038 A 
ATOM     11  C   UNL     1      22.025  30.169  13.654  0.00  0.00    +0.047 A 
ATOM     12  C   UNL     1      22.256  31.153  14.700  0.00  0.00    +0.035 A 
ATOM     32  C   UNL     1      23.144  32.234  14.426  0.00  0.00    +0.024 A 
ATOM     33  C   UNL     1      23.803  32.357  13.150  0.00  0.00    +0.007 A 
ATOM     34  C   UNL     1      23.581  31.388  12.115  0.00  0.00    -0.029 A 
ATOM     35  C   UNL     1      24.321  31.565  10.768  0.00  0.00    +0.045 C 
ENDROOT
BRANCH  10   9
ATOM      4  C   UNL     1      23.601  26.084  10.249  0.00  0.00    +0.077 A 
ATOM      5  C   UNL     1      24.716  25.823  11.113  0.00  0.00    +0.048 A 
ATOM      6  C   UNL     1      25.020  26.796  12.092  0.00  0.00    +0.116 A 
ATOM      7  N   UNL     1      24.258  27.940  12.190  0.00  0.00    -0.223 NA
ATOM      8  C   UNL     1      23.191  28.162  11.339  0.00  0.00    +0.220 A 
ATOM      9  N   UNL     1      22.407  29.302  11.424  0.00  0.00    -0.283 N 
ATOM     36  H   UNL     1      21.633  29.431  10.773  0.00  0.00    +0.155 HD
ATOM     37  N   UNL     1      22.881  27.248  10.395  0.00  0.00    -0.214 NA
BRANCH   4   3
ATOM      1  C   UNL     1      23.486  23.939   6.979  0.00  0.00    +0.020 A 
ATOM      2  C   UNL     1      23.964  24.849   7.994  0.00  0.00    +0.013 A 
ATOM      3  C   UNL     1      23.154  25.150   9.168  0.00  0.00    +0.019 A 
ATOM     38  C   UNL     1      21.853  24.507   9.285  0.00  0.00    +0.120 A 
ATOM     39  N   UNL     1      21.418  23.636   8.291  0.00  0.00    -0.263 NA
ATOM     40  C   UNL     1      22.189  23.341   7.156  0.00  0.00    +0.111 A 
ENDBRANCH   4   3
ENDBRANCH  10   9
BRANCH  12  13
ATOM     13  N   UNL     1      21.641  31.093  16.002  0.00  0.00    -0.281 N 
ATOM     14  C   UNL     1      20.367  31.500  16.362  0.00  0.00    +0.248 C 
ATOM     30  O   UNL     1      19.633  32.178  15.658  0.00  0.00    -0.270 OA
ATOM     31  H   UNL     1      22.215  30.703  16.750  0.00  0.00    +0.155 HD
BRANCH  14  15
ATOM     15  C   UNL     1      19.835  31.110  17.703  0.00  0.00    +0.037 A 
ATOM     16  C   UNL     1      18.989  29.925  17.870  0.00  0.00    +0.013 A 
ATOM     17  C   UNL     1      18.476  29.581  19.172  0.00  0.00    +0.005 A 
ATOM     18  C   UNL     1      18.809  30.422  20.319  0.00  0.00    -0.033 A 
ATOM     28  C   UNL     1      19.655  31.588  20.126  0.00  0.00    +0.005 A 
ATOM     29  C   UNL     1      20.159  31.929  18.851  0.00  0.00    +0.013 A 
BRANCH  18  19
ATOM     19  C   UNL     1      18.288  30.142  21.741  0.00  0.00    +0.119 C 
BRANCH  19  20
ATOM     20  N   UNL     1      18.429  28.748  22.258  0.00  0.00    -0.302 NA
ATOM     21  C   UNL     1      17.877  28.604  23.679  0.00  0.00    +0.066 C 
ATOM     22  C   UNL     1      18.011  27.135  24.196  0.00  0.00    -0.064 C 
ATOM     23  N   UNL     1      19.480  26.710  24.140  0.00  0.00    +0.379 N 
ATOM     24  C   UNL     1      19.617  25.349  24.680  0.00  0.00    -0.096 C 
ATOM     25  H   UNL     1      20.056  27.397  24.803  0.00  0.00    -0.082 HD
ATOM     26  C   UNL     1      20.037  26.852  22.731  0.00  0.00    -0.064 C 
ATOM     27  C   UNL     1      19.872  28.309  22.216  0.00  0.00    +0.066 C 
ENDBRANCH  19  20
ENDBRANCH  18  19
ENDBRANCH  14  15
ENDBRANCH  12  13
TORSDOF 6
ENDMDL
MODEL 5
REMARK VINA RESULT:      -8.2     13.349     17.352
REMARK  Name = C:\Users\Docking\Desktop\test protocol\1iep_ligandH.pdb
REMARK  8 active torsions:
REMARK  status: ('A' for Active; 'I' for Inactive)
REMARK    1  A    between atoms: _5  and  _11
REMARK    2  A    between atoms: _19  and  _21
REMARK    3  A    between atoms: _22  and  _66
REMARK    4  A    between atoms: _27  and  _30
REMARK    5  A    between atoms: _32  and  _33
REMARK    6  A    between atoms: _38  and  _43
REMARK    7  A    between atoms: _43  and  _46
REMARK    8  A    between atoms: _53  and  _55
REMARK                            x       y       z     vdW  Elec       q    Type
REMARK                         _______ _______ _______ _____ _____    ______ ____
ROOT
ATOM     10  C   UNL     1      16.326  24.875  32.894  0.00  0.00    +0.038 A 
ATOM     11  C   UNL     1      17.513  24.287  32.388  0.00  0.00    +0.047 A 
ATOM     12  C   UNL     1      18.003  23.018  32.903  0.00  0.00    +0.035 A 
ATOM     32  C   UNL     1      17.257  22.373  33.932  0.00  0.00    +0.024 A 
ATOM     33  C   UNL     1      16.049  22.958  34.460  0.00  0.00    +0.007 A 
ATOM     34  C   UNL     1      15.562  24.211  33.957  0.00  0.00    -0.029 A 
ATOM     35  C   UNL     1      14.265  24.794  34.565  0.00  0.00    +0.045 C 
ENDROOT
BRANCH  10   9
ATOM      4  C   UNL     1      13.878  27.472  29.684  0.00  0.00    +0.077 A 
ATOM      5  C   UNL     1      13.428  26.299  28.991  0.00  0.00    +0.048 A 
ATOM      6  C   UNL     1      13.855  25.047  29.488  0.00  0.00    +0.116 A 
ATOM      7  N   UNL     1      14.671  24.985  30.597  0.00  0.00    -0.223 NA
ATOM      8  C   UNL     1      15.088  26.135  31.241  0.00  0.00    +0.220 A 
ATOM      9  N   UNL     1      15.901  26.095  32.363  0.00  0.00    -0.283 N 
ATOM     36  H   UNL     1      16.193  26.966  32.806  0.00  0.00    +0.155 HD
ATOM     37  N   UNL     1      14.695  27.342  30.785  0.00  0.00    -0.214 NA
BRANCH   4   3
ATOM      1  C   UNL     1      12.971  31.275  29.804  0.00  0.00    +0.020 A 
ATOM      2  C   UNL     1      13.327  29.946  30.244  0.00  0.00    +0.013 A 
ATOM      3  C   UNL     1      13.509  28.866  29.282  0.00  0.00    +0.019 A 
ATOM     38  C   UNL     1      13.324  29.167  27.871  0.00  0.00    +0.120 A 
ATOM     39  N   UNL     1      12.980  30.456  27.476  0.00  0.00    -0.263 NA
ATOM     40  C   UNL     1      12.800  31.503  28.393  0.00  0.00    +0.111 A 
ENDBRANCH   4   3
ENDBRANCH  10   9
BRANCH  12  13
ATOM     13  N   UNL     1      19.205  22.376  32.433  0.00  0.00    -0.281 N 
ATOM     14  C   UNL     1      19.482  21.915  31.156  0.00  0.00    +0.248 C 
ATOM     30  O   UNL     1      18.649  21.792  30.270  0.00  0.00    -0.270 OA
ATOM     31  H   UNL     1      19.943  22.246  33.126  0.00  0.00    +0.155 HD
BRANCH  14  15
ATOM     15  C   UNL     1      20.883  21.520  30.818  0.00  0.00    +0.037 A 
ATOM     16  C   UNL     1      21.524  21.977  29.583  0.00  0.00    +0.013 A 
ATOM     17  C   UNL     1      22.871  21.567  29.273  0.00  0.00    +0.005 A 
ATOM     18  C   UNL     1      23.587  20.697  30.203  0.00  0.00    -0.033 A 
ATOM     28  C   UNL     1      22.929  20.263  31.424  0.00  0.00    +0.005 A 
ATOM     29  C   UNL     1      21.608  20.662  31.730  0.00  0.00    +0.013 A 
BRANCH  18  19
ATOM     19  C   UNL     1      25.019  20.194  29.943  0.00  0.00    +0.119 C 
BRANCH  19  20
ATOM     20  N   UNL     1      25.417  18.903  30.581  0.00  0.00    -0.302 NA
ATOM     21  C   UNL     1      26.936  18.719  30.607  0.00  0.00    +0.066 C 
ATOM     22  C   UNL     1      27.335  17.375  31.298  0.00  0.00    -0.064 C 
ATOM     23  N   UNL     1      26.662  16.211  30.569  0.00  0.00    +0.379 N 
ATOM     24  C   UNL     1      27.081  14.941  31.181  0.00  0.00    -0.096 C 
ATOM     25  H   UNL     1      27.026  16.216  29.516  0.00  0.00    -0.082 HD
ATOM     26  C   UNL     1      25.150  16.387  30.536  0.00  0.00    -0.064 C 
ATOM     27  C   UNL     1      24.766  17.739  29.874  0.00  0.00    +0.066 C 
ENDBRANCH  19  20
ENDBRANCH  18  19
ENDBRANCH  14  15
ENDBRANCH  12  13
TORSDOF 6
ENDMDL
