MODEL 1
REMARK VINA RESULT:      -8.5      0.000      0.000
REMARK  Name = C:\Users\Docking\Desktop\test protocol\1iep_ligandH.pdb
REMARK  8 active torsions:
REMARK  status: ('A' for Active; 'I' for Inactive)
REMARK    1  A    between atoms: _5  and  _11
REMARK    2  A    between atoms: _19  and  _21
REMARK    3  A    between atoms: _22  and  _66
REMARK    4  A    between atoms: _27  and  _30
REMARK    5  A    between atoms: _32  and  _33
REMARK    6  A    between atoms: _38  and  _43
REMARK    7  A    between atoms: _43  and  _46
REMARK    8  A    between atoms: _53  and  _55
REMARK                            x       y       z     vdW  Elec       q    Type
REMARK                         _______ _______ _______ _____ _____    ______ ____
ROOT
ATOM     10  C   UNL     1      19.837  29.938  22.218  0.00  0.00    +0.038 A 
ATOM     11  C   UNL     1      20.318  30.061  20.889  0.00  0.00    +0.047 A 
ATOM     12  C   UNL     1      19.684  30.962  19.939  0.00  0.00    +0.035 A 
ATOM     32  C   UNL     1      18.563  31.725  20.377  0.00  0.00    +0.024 A 
ATOM     33  C   UNL     1      18.060  31.612  21.723  0.00  0.00    +0.007 A 
ATOM     34  C   UNL     1      18.680  30.724  22.664  0.00  0.00    -0.029 A 
ATOM     35  C   UNL     1      18.094  30.638  24.093  0.00  0.00    +0.045 C 
ENDROOT
BRANCH  10   9
ATOM      4  C   UNL     1      20.055  25.835  24.698  0.00  0.00    +0.077 A 
ATOM      5  C   UNL     1      18.760  25.421  24.242  0.00  0.00    +0.048 A 
ATOM      6  C   UNL     1      18.067  26.297  23.376  0.00  0.00    +0.116 A 
ATOM      7  N   UNL     1      18.637  27.494  23.000  0.00  0.00    -0.223 NA
ATOM      8  C   UNL     1      19.888  27.863  23.460  0.00  0.00    +0.220 A 
ATOM      9  N   UNL     1      20.484  29.058  23.088  0.00  0.00    -0.283 N 
ATOM     36  H   UNL     1      21.405  29.298  23.455  0.00  0.00    +0.155 HD
ATOM     37  N   UNL     1      20.569  27.045  24.289  0.00  0.00    -0.214 NA
BRANCH   4   3
ATOM      1  C   UNL     1      21.248  23.503  27.603  0.00  0.00    +0.020 A 
ATOM      2  C   UNL     1      20.377  24.277  26.749  0.00  0.00    +0.013 A 
ATOM      3  C   UNL     1      20.912  25.018  25.614  0.00  0.00    +0.019 A 
ATOM     38  C   UNL     1      22.345  24.952  25.367  0.00  0.00    +0.120 A 
ATOM     39  N   UNL     1      23.159  24.199  26.207  0.00  0.00    -0.263 NA
ATOM     40  C   UNL     1      22.655  23.484  27.304  0.00  0.00    +0.111 A 
ENDBRANCH   4   3
ENDBRANCH  10   9
BRANCH  12  13
ATOM     13  N   UNL     1      20.124  31.122  18.575  0.00  0.00    -0.281 N 
ATOM     14  C   UNL     1      20.682  32.244  17.987  0.00  0.00    +0.248 C 
ATOM     30  O   UNL     1      20.692  33.357  18.492  0.00  0.00    -0.270 OA
ATOM     31  H   UNL     1      20.009  30.308  17.970  0.00  0.00    +0.155 HD
BRANCH  14  15
ATOM     15  C   UNL     1      21.307  32.116  16.635  0.00  0.00    +0.037 A 
ATOM     16  C   UNL     1      20.684  31.309  15.583  0.00  0.00    +0.013 A 
ATOM     17  C   UNL     1      21.317  31.188  14.294  0.00  0.00    +0.005 A 
ATOM     18  C   UNL     1      22.581  31.878  14.049  0.00  0.00    -0.033 A 
ATOM     28  C   UNL     1      23.175  32.676  15.109  0.00  0.00    +0.005 A 
ATOM     29  C   UNL     1      22.558  32.796  16.374  0.00  0.00    +0.013 A 
BRANCH  18  19
ATOM     19  C   UNL     1      23.338  31.788  12.710  0.00  0.00    +0.119 C 
BRANCH  19  20
ATOM     20  N   UNL     1      23.588  33.066  11.979  0.00  0.00    -0.302 NA
ATOM     21  C   UNL     1      22.297  33.670  11.420  0.00  0.00    +0.066 C 
ATOM     22  C   UNL     1      22.575  35.018  10.678  0.00  0.00    -0.064 C 
ATOM     23  N   UNL     1      23.591  34.781   9.559  0.00  0.00    +0.379 N 
ATOM     24  C   UNL     1      23.811  36.034   8.822  0.00  0.00    -0.096 C 
ATOM     25  H   UNL     1      23.147  34.045   8.850  0.00  0.00    -0.082 HD
ATOM     26  C   UNL     1      24.877  34.177  10.106  0.00  0.00    -0.064 C 
ATOM     27  C   UNL     1      24.586  32.854  10.867  0.00  0.00    +0.066 C 
ENDBRANCH  19  20
ENDBRANCH  18  19
ENDBRANCH  14  15
ENDBRANCH  12  13
TORSDOF 6
ENDMDL
MODEL 2
REMARK VINA RESULT:      -8.5      4.338     12.560
REMARK  Name = C:\Users\Docking\Desktop\test protocol\1iep_ligandH.pdb
REMARK  8 active torsions:
REMARK  status: ('A' for Active; 'I' for Inactive)
REMARK    1  A    between atoms: _5  and  _11
REMARK    2  A    between atoms: _19  and  _21
REMARK    3  A    between atoms: _22  and  _66
REMARK    4  A    between atoms: _27  and  _30
REMARK    5  A    between atoms: _32  and  _33
REMARK    6  A    between atoms: _38  and  _43
REMARK    7  A    between atoms: _43  and  _46
REMARK    8  A    between atoms: _53  and  _55
REMARK                            x       y       z     vdW  Elec       q    Type
REMARK                         _______ _______ _______ _____ _____    ______ ____
ROOT
ATOM     10  C   UNL     1      22.719  30.705  12.360  0.00  0.00    +0.038 A 
ATOM     11  C   UNL     1      22.195  30.722  13.678  0.00  0.00    +0.047 A 
ATOM     12  C   UNL     1      22.597  31.741  14.635  0.00  0.00    +0.035 A 
ATOM     32  C   UNL     1      23.534  32.730  14.214  0.00  0.00    +0.024 A 
ATOM     33  C   UNL     1      24.077  32.728  12.879  0.00  0.00    +0.007 A 
ATOM     34  C   UNL     1      23.685  31.723  11.931  0.00  0.00    -0.029 A 
ATOM     35  C   UNL     1      24.305  31.765  10.515  0.00  0.00    +0.045 C 
ENDROOT
BRANCH  10   9
ATOM      4  C   UNL     1      23.169  26.364  10.362  0.00  0.00    +0.077 A 
ATOM      5  C   UNL     1      24.359  26.078  11.111  0.00  0.00    +0.048 A 
ATOM      6  C   UNL     1      24.826  27.078  11.993  0.00  0.00    +0.116 A 
ATOM      7  N   UNL     1      24.146  28.270  12.111  0.00  0.00    -0.223 NA
ATOM      8  C   UNL     1      23.002  28.515  11.374  0.00  0.00    +0.220 A 
ATOM      9  N   UNL     1      22.298  29.704  11.482  0.00  0.00    -0.283 N 
ATOM     36  H   UNL     1      21.462  29.848  10.916  0.00  0.00    +0.155 HD
ATOM     37  N   UNL     1      22.536  27.577  10.523  0.00  0.00    -0.214 NA
BRANCH   4   3
ATOM      1  C   UNL     1      22.672  23.782   7.467  0.00  0.00    +0.020 A 
ATOM      2  C   UNL     1      23.319  24.695   8.380  0.00  0.00    +0.013 A 
ATOM      3  C   UNL     1      22.549  25.408   9.392  0.00  0.00    +0.019 A 
ATOM     38  C   UNL     1      21.115  25.170   9.454  0.00  0.00    +0.120 A 
ATOM     39  N   UNL     1      20.519  24.286   8.560  0.00  0.00    -0.263 NA
ATOM     40  C   UNL     1      21.250  23.596   7.581  0.00  0.00    +0.111 A 
ENDBRANCH   4   3
ENDBRANCH  10   9
BRANCH  12  13
ATOM     13  N   UNL     1      22.106  31.804  15.989  0.00  0.00    -0.281 N 
ATOM     14  C   UNL     1      21.152  32.663  16.509  0.00  0.00    +0.248 C 
ATOM     30  O   UNL     1      20.729  33.656  15.935  0.00  0.00    -0.270 OA
ATOM     31  H   UNL     1      22.510  31.133  16.643  0.00  0.00    +0.155 HD
BRANCH  14  15
ATOM     15  C   UNL     1      20.598  32.388  17.870  0.00  0.00    +0.037 A 
ATOM     16  C   UNL     1      20.387  33.468  18.837  0.00  0.00    +0.013 A 
ATOM     17  C   UNL     1      19.868  33.173  20.149  0.00  0.00    +0.005 A 
ATOM     18  C   UNL     1      19.555  31.790  20.501  0.00  0.00    -0.033 A 
ATOM     28  C   UNL     1      19.769  30.739  19.521  0.00  0.00    +0.005 A 
ATOM     29  C   UNL     1      20.279  31.024  18.234  0.00  0.00    +0.013 A 
BRANCH  18  19
ATOM     19  C   UNL     1      19.017  31.381  21.885  0.00  0.00    +0.119 C 
BRANCH  19  20
ATOM     20  N   UNL     1      18.868  29.920  22.156  0.00  0.00    -0.302 NA
ATOM     21  C   UNL     1      17.589  29.608  22.939  0.00  0.00    +0.066 C 
ATOM     22  C   UNL     1      17.438  28.073  23.194  0.00  0.00    -0.064 C 
ATOM     23  N   UNL     1      18.670  27.559  23.941  0.00  0.00    +0.379 N 
ATOM     24  C   UNL     1      18.504  26.128  24.233  0.00  0.00    -0.096 C 
ATOM     25  H   UNL     1      18.724  28.099  24.914  0.00  0.00    -0.082 HD
ATOM     26  C   UNL     1      19.946  27.867  23.170  0.00  0.00    -0.064 C 
ATOM     27  C   UNL     1      20.072  29.392  22.897  0.00  0.00    +0.066 C 
ENDBRANCH  19  20
ENDBRANCH  18  19
ENDBRANCH  14  15
ENDBRANCH  12  13
TORSDOF 6
ENDMDL
MODEL 3
REMARK VINA RESULT:      -8.2      4.667     12.548
REMARK  Name = C:\Users\Docking\Desktop\test protocol\1iep_ligandH.pdb
REMARK  8 active torsions:
REMARK  status: ('A' for Active; 'I' for Inactive)
REMARK    1  A    between atoms: _5  and  _11
REMARK    2  A    between atoms: _19  and  _21
REMARK    3  A    between atoms: _22  and  _66
REMARK    4  A    between atoms: _27  and  _30
REMARK    5  A    between atoms: _32  and  _33
REMARK    6  A    between atoms: _38  and  _43
REMARK    7  A    between atoms: _43  and  _46
REMARK    8  A    between atoms: _53  and  _55
REMARK                            x       y       z     vdW  Elec       q    Type
REMARK                         _______ _______ _______ _____ _____    ______ ____
ROOT
ATOM     10  C   UNL     1      22.577  30.778  12.666  0.00  0.00    +0.038 A 
ATOM     11  C   UNL     1      22.078  30.826  13.992  0.00  0.00    +0.047 A 
ATOM     12  C   UNL     1      22.535  31.838  14.932  0.00  0.00    +0.035 A 
ATOM     32  C   UNL     1      23.499  32.788  14.486  0.00  0.00    +0.024 A 
ATOM     33  C   UNL     1      24.018  32.753  13.141  0.00  0.00    +0.007 A 
ATOM     34  C   UNL     1      23.573  31.756  12.210  0.00  0.00    -0.029 A 
ATOM     35  C   UNL     1      24.168  31.762  10.783  0.00  0.00    +0.045 C 
ENDROOT
BRANCH  10   9
ATOM      4  C   UNL     1      22.956  26.498  10.527  0.00  0.00    +0.077 A 
ATOM      5  C   UNL     1      24.217  26.229  11.157  0.00  0.00    +0.048 A 
ATOM      6  C   UNL     1      24.737  27.221  12.018  0.00  0.00    +0.116 A 
ATOM      7  N   UNL     1      24.039  28.391  12.227  0.00  0.00    -0.223 NA
ATOM      8  C   UNL     1      22.827  28.619  11.603  0.00  0.00    +0.220 A 
ATOM      9  N   UNL     1      22.104  29.785  11.805  0.00  0.00    -0.283 N 
ATOM     36  H   UNL     1      21.217  29.918  11.321  0.00  0.00    +0.155 HD
ATOM     37  N   UNL     1      22.310  27.688  10.775  0.00  0.00    -0.214 NA
BRANCH   4   3
ATOM      1  C   UNL     1      22.234  24.053   7.561  0.00  0.00    +0.020 A 
ATOM      2  C   UNL     1      22.937  24.968   8.431  0.00  0.00    +0.013 A 
ATOM      3  C   UNL     1      22.275  25.546   9.594  0.00  0.00    +0.019 A 
ATOM     38  C   UNL     1      20.892  25.174   9.851  0.00  0.00    +0.120 A 
ATOM     39  N   UNL     1      20.241  24.292   8.994  0.00  0.00    -0.263 NA
ATOM     40  C   UNL     1      20.866  23.730   7.871  0.00  0.00    +0.111 A 
ENDBRANCH   4   3
ENDBRANCH  10   9
BRANCH  12  13
ATOM     13  N   UNL     1      22.070  31.931  16.294  0.00  0.00    -0.281 N 
ATOM     14  C   UNL     1      20.951  32.596  16.768  0.00  0.00    +0.248 C 
ATOM     30  O   UNL     1      20.294  33.394  16.117  0.00  0.00    -0.270 OA
ATOM     31  H   UNL     1      22.635  31.449  16.993  0.00  0.00    +0.155 HD
BRANCH  14  15
ATOM     15  C   UNL     1      20.506  32.349  18.173  0.00  0.00    +0.037 A 
ATOM     16  C   UNL     1      20.268  33.458  19.101  0.00  0.00    +0.013 A 
ATOM     17  C   UNL     1      19.856  33.191  20.456  0.00  0.00    +0.005 A 
ATOM     18  C   UNL     1      19.678  31.808  20.892  0.00  0.00    -0.033 A 
ATOM     28  C   UNL     1      19.916  30.727  19.949  0.00  0.00    +0.005 A 
ATOM     29  C   UNL     1      20.321  30.985  18.620  0.00  0.00    +0.013 A 
BRANCH  18  19
ATOM     19  C   UNL     1      19.261  31.429  22.325  0.00  0.00    +0.119 C 
BRANCH  19  20
ATOM     20  N   UNL     1      18.476  32.438  23.098  0.00  0.00    -0.302 NA
ATOM     21  C   UNL     1      18.722  32.325  24.605  0.00  0.00    +0.066 C 
ATOM     22  C   UNL     1      17.910  33.402  25.396  0.00  0.00    -0.064 C 
ATOM     23  N   UNL     1      16.422  33.251  25.077  0.00  0.00    +0.379 N 
ATOM     24  C   UNL     1      15.651  34.225  25.864  0.00  0.00    -0.096 C 
ATOM     25  H   UNL     1      16.109  32.231  25.400  0.00  0.00    -0.082 HD
ATOM     26  C   UNL     1      16.169  33.360  23.580  0.00  0.00    -0.064 C 
ATOM     27  C   UNL     1      17.003  32.304  22.801  0.00  0.00    +0.066 C 
ENDBRANCH  19  20
ENDBRANCH  18  19
ENDBRANCH  14  15
ENDBRANCH  12  13
TORSDOF 6
ENDMDL
MODEL 4
REMARK VINA RESULT:      -8.2      1.808      2.947
REMARK  Name = C:\Users\Docking\Desktop\test protocol\1iep_ligandH.pdb
REMARK  8 active torsions:
REMARK  status: ('A' for Active; 'I' for Inactive)
REMARK    1  A    between atoms: _5  and  _11
REMARK    2  A    between atoms: _19  and  _21
REMARK    3  A    between atoms: _22  and  _66
REMARK    4  A    between atoms: _27  and  _30
REMARK    5  A    between atoms: _32  and  _33
REMARK    6  A    between atoms: _38  and  _43
REMARK    7  A    between atoms: _43  and  _46
REMARK    8  A    between atoms: _53  and  _55
REMARK                            x       y       z     vdW  Elec       q    Type
REMARK                         _______ _______ _______ _____ _____    ______ ____
ROOT
ATOM     10  C   UNL     1      19.705  29.999  22.267  0.00  0.00    +0.038 A 
ATOM     11  C   UNL     1      20.139  30.141  20.924  0.00  0.00    +0.047 A 
ATOM     12  C   UNL     1      19.450  31.028  20.000  0.00  0.00    +0.035 A 
ATOM     32  C   UNL     1      18.324  31.759  20.478  0.00  0.00    +0.024 A 
ATOM     33  C   UNL     1      17.868  31.626  21.840  0.00  0.00    +0.007 A 
ATOM     34  C   UNL     1      18.543  30.751  22.755  0.00  0.00    -0.029 A 
ATOM     35  C   UNL     1      18.007  30.643  24.202  0.00  0.00    +0.045 C 
ENDROOT
BRANCH  10   9
ATOM      4  C   UNL     1      20.139  25.870  24.675  0.00  0.00    +0.077 A 
ATOM      5  C   UNL     1      18.853  25.411  24.236  0.00  0.00    +0.048 A 
ATOM      6  C   UNL     1      18.108  26.270  23.397  0.00  0.00    +0.116 A 
ATOM      7  N   UNL     1      18.622  27.495  23.031  0.00  0.00    -0.223 NA
ATOM      8  C   UNL     1      19.865  27.909  23.473  0.00  0.00    +0.220 A 
ATOM      9  N   UNL     1      20.404  29.133  23.111  0.00  0.00    -0.283 N 
ATOM     36  H   UNL     1      21.321  29.405  23.464  0.00  0.00    +0.155 HD
ATOM     37  N   UNL     1      20.595  27.107  24.276  0.00  0.00    -0.214 NA
BRANCH   4   3
ATOM      1  C   UNL     1      23.325  24.275  26.288  0.00  0.00    +0.020 A 
ATOM      2  C   UNL     1      22.494  25.059  25.404  0.00  0.00    +0.013 A 
ATOM      3  C   UNL     1      21.046  25.075  25.562  0.00  0.00    +0.019 A 
ATOM     38  C   UNL     1      20.465  24.280  26.633  0.00  0.00    +0.120 A 
ATOM     39  N   UNL     1      21.290  23.532  27.468  0.00  0.00    -0.263 NA
ATOM     40  C   UNL     1      22.685  23.508  27.324  0.00  0.00    +0.111 A 
ENDBRANCH   4   3
ENDBRANCH  10   9
BRANCH  12  13
ATOM     13  N   UNL     1      19.840  31.206  18.623  0.00  0.00    -0.281 N 
ATOM     14  C   UNL     1      20.508  32.281  18.059  0.00  0.00    +0.248 C 
ATOM     30  O   UNL     1      20.684  33.355  18.616  0.00  0.00    -0.270 OA
ATOM     31  H   UNL     1      19.594  30.448  17.987  0.00  0.00    +0.155 HD
BRANCH  14  15
ATOM     15  C   UNL     1      21.046  32.149  16.671  0.00  0.00    +0.037 A 
ATOM     16  C   UNL     1      22.462  32.387  16.379  0.00  0.00    +0.013 A 
ATOM     17  C   UNL     1      22.951  32.270  15.028  0.00  0.00    +0.005 A 
ATOM     18  C   UNL     1      22.022  31.912  13.959  0.00  0.00    -0.033 A 
ATOM     28  C   UNL     1      20.624  31.676  14.277  0.00  0.00    +0.005 A 
ATOM     29  C   UNL     1      20.141  31.791  15.600  0.00  0.00    +0.013 A 
BRANCH  18  19
ATOM     19  C   UNL     1      22.452  31.785  12.485  0.00  0.00    +0.119 C 
BRANCH  19  20
ATOM     20  N   UNL     1      22.613  30.406  11.936  0.00  0.00    -0.302 NA
ATOM     21  C   UNL     1      22.576  29.341  13.036  0.00  0.00    +0.066 C 
ATOM     22  C   UNL     1      22.722  27.903  12.441  0.00  0.00    -0.064 C 
ATOM     23  N   UNL     1      24.025  27.813  11.645  0.00  0.00    +0.379 N 
ATOM     24  C   UNL     1      24.195  26.445  11.134  0.00  0.00    -0.096 C 
ATOM     25  H   UNL     1      24.866  28.018  12.349  0.00  0.00    -0.082 HD
ATOM     26  C   UNL     1      24.072  28.870  10.551  0.00  0.00    -0.064 C 
ATOM     27  C   UNL     1      23.896  30.294  11.149  0.00  0.00    +0.066 C 
ENDBRANCH  19  20
ENDBRANCH  18  19
ENDBRANCH  14  15
ENDBRANCH  12  13
TORSDOF 6
ENDMDL
MODEL 5
REMARK VINA RESULT:      -7.9     13.262     17.603
REMARK  Name = C:\Users\Docking\Desktop\test protocol\1iep_ligandH.pdb
REMARK  8 active torsions:
REMARK  status: ('A' for Active; 'I' for Inactive)
REMARK    1  A    between atoms: _5  and  _11
REMARK    2  A    between atoms: _19  and  _21
REMARK    3  A    between atoms: _22  and  _66
REMARK    4  A    between atoms: _27  and  _30
REMARK    5  A    between atoms: _32  and  _33
REMARK    6  A    between atoms: _38  and  _43
REMARK    7  A    between atoms: _43  and  _46
REMARK    8  A    between atoms: _53  and  _55
REMARK                            x       y       z     vdW  Elec       q    Type
REMARK                         _______ _______ _______ _____ _____    ______ ____
ROOT
ATOM     10  C   UNL     1      27.628  19.891  29.020  0.00  0.00    +0.038 A 
ATOM     11  C   UNL     1      26.238  20.143  29.151  0.00  0.00    +0.047 A 
ATOM     12  C   UNL     1      25.727  21.499  29.266  0.00  0.00    +0.035 A 
ATOM     32  C   UNL     1      26.659  22.577  29.240  0.00  0.00    +0.024 A 
ATOM     33  C   UNL     1      28.075  22.340  29.109  0.00  0.00    +0.007 A 
ATOM     34  C   UNL     1      28.586  21.004  28.998  0.00  0.00    -0.029 A 
ATOM     35  C   UNL     1      30.114  20.808  28.866  0.00  0.00    +0.045 C 
ENDROOT
BRANCH  10   9
ATOM      4  C   UNL     1      29.143  15.766  30.951  0.00  0.00    +0.077 A 
ATOM      5  C   UNL     1      29.085  16.300  32.282  0.00  0.00    +0.048 A 
ATOM      6  C   UNL     1      28.668  17.642  32.426  0.00  0.00    +0.116 A 
ATOM      7  N   UNL     1      28.335  18.386  31.315  0.00  0.00    -0.223 NA
ATOM      8  C   UNL     1      28.403  17.841  30.045  0.00  0.00    +0.220 A 
ATOM      9  N   UNL     1      28.065  18.569  28.915  0.00  0.00    -0.283 N 
ATOM     36  H   UNL     1      28.135  18.133  27.995  0.00  0.00    +0.155 HD
ATOM     37  N   UNL     1      28.800  16.562  29.881  0.00  0.00    -0.214 NA
BRANCH   4   3
ATOM      1  C   UNL     1      30.569  12.137  31.264  0.00  0.00    +0.020 A 
ATOM      2  C   UNL     1      30.184  13.484  31.618  0.00  0.00    +0.013 A 
ATOM      3  C   UNL     1      29.561  14.364  30.637  0.00  0.00    +0.019 A 
ATOM     38  C   UNL     1      29.340  13.846  29.295  0.00  0.00    +0.120 A 
ATOM     39  N   UNL     1      29.723  12.545  28.982  0.00  0.00    -0.263 NA
ATOM     40  C   UNL     1      30.324  11.690  29.918  0.00  0.00    +0.111 A 
ENDBRANCH   4   3
ENDBRANCH  10   9
BRANCH  12  13
ATOM     13  N   UNL     1      24.327  21.815  29.409  0.00  0.00    -0.281 N 
ATOM     14  C   UNL     1      23.593  22.765  28.717  0.00  0.00    +0.248 C 
ATOM     30  O   UNL     1      24.081  23.638  28.015  0.00  0.00    -0.270 OA
ATOM     31  H   UNL     1      23.815  21.273  30.105  0.00  0.00    +0.155 HD
BRANCH  14  15
ATOM     15  C   UNL     1      22.103  22.751  28.832  0.00  0.00    +0.037 A 
ATOM     16  C   UNL     1      21.274  23.695  28.080  0.00  0.00    +0.013 A 
ATOM     17  C   UNL     1      19.839  23.671  28.222  0.00  0.00    +0.005 A 
ATOM     18  C   UNL     1      19.225  22.697  29.122  0.00  0.00    -0.033 A 
ATOM     28  C   UNL     1      20.072  21.769  29.852  0.00  0.00    +0.005 A 
ATOM     29  C   UNL     1      21.478  21.790  29.716  0.00  0.00    +0.013 A 
BRANCH  18  19
ATOM     19  C   UNL     1      17.705  22.614  29.352  0.00  0.00    +0.119 C 
BRANCH  19  20
ATOM     20  N   UNL     1      17.102  23.597  30.300  0.00  0.00    -0.302 NA
ATOM     21  C   UNL     1      17.263  23.161  31.759  0.00  0.00    +0.066 C 
ATOM     22  C   UNL     1      16.646  24.212  32.739  0.00  0.00    -0.064 C 
ATOM     23  N   UNL     1      15.170  24.421  32.396  0.00  0.00    +0.379 N 
ATOM     24  C   UNL     1      14.574  25.365  33.352  0.00  0.00    -0.096 C 
ATOM     25  H   UNL     1      14.653  23.441  32.519  0.00  0.00    -0.082 HD
ATOM     26  C   UNL     1      15.001  24.853  30.946  0.00  0.00    -0.064 C 
ATOM     27  C   UNL     1      15.643  23.816  29.982  0.00  0.00    +0.066 C 
ENDBRANCH  19  20
ENDBRANCH  18  19
ENDBRANCH  14  15
ENDBRANCH  12  13
TORSDOF 6
ENDMDL
