MODEL 1
REMARK VINA RESULT:      -8.7      0.000      0.000
REMARK  Name = C:\Users\Docking\Desktop\test protocol\1iep_ligandH.pdb
REMARK  8 active torsions:
REMARK  status: ('A' for Active; 'I' for Inactive)
REMARK    1  A    between atoms: _5  and  _11
REMARK    2  A    between atoms: _19  and  _21
REMARK    3  A    between atoms: _22  and  _66
REMARK    4  A    between atoms: _27  and  _30
REMARK    5  A    between atoms: _32  and  _33
REMARK    6  A    between atoms: _38  and  _43
REMARK    7  A    between atoms: _43  and  _46
REMARK    8  A    between atoms: _53  and  _55
REMARK                            x       y       z     vdW  Elec       q    Type
REMARK                         _______ _______ _______ _____ _____    ______ ____
ROOT
ATOM     10  C   UNL     1      20.190  30.048  22.030  0.00  0.00    +0.038 A 
ATOM     11  C   UNL     1      20.662  30.087  20.693  0.00  0.00    +0.047 A 
ATOM     12  C   UNL     1      20.086  30.999  19.717  0.00  0.00    +0.035 A 
ATOM     32  C   UNL     1      19.032  31.860  20.138  0.00  0.00    +0.024 A 
ATOM     33  C   UNL     1      18.538  31.834  21.492  0.00  0.00    +0.007 A 
ATOM     34  C   UNL     1      19.101  30.935  22.459  0.00  0.00    -0.029 A 
ATOM     35  C   UNL     1      18.528  30.945  23.895  0.00  0.00    +0.045 C 
ENDROOT
BRANCH  10   9
ATOM      4  C   UNL     1      20.135  26.023  24.644  0.00  0.00    +0.077 A 
ATOM      5  C   UNL     1      18.809  25.689  24.210  0.00  0.00    +0.048 A 
ATOM      6  C   UNL     1      18.173  26.583  23.319  0.00  0.00    +0.116 A 
ATOM      7  N   UNL     1      18.825  27.723  22.900  0.00  0.00    -0.223 NA
ATOM      8  C   UNL     1      20.102  28.017  23.340  0.00  0.00    +0.220 A 
ATOM      9  N   UNL     1      20.779  29.153  22.925  0.00  0.00    -0.283 N 
ATOM     36  H   UNL     1      21.718  29.338  23.278  0.00  0.00    +0.155 HD
ATOM     37  N   UNL     1      20.731  27.180  24.191  0.00  0.00    -0.214 NA
BRANCH   4   3
ATOM      1  C   UNL     1      21.178  23.693  27.607  0.00  0.00    +0.020 A 
ATOM      2  C   UNL     1      20.357  24.499  26.733  0.00  0.00    +0.013 A 
ATOM      3  C   UNL     1      20.939  25.177  25.582  0.00  0.00    +0.019 A 
ATOM     38  C   UNL     1      22.365  25.018  25.341  0.00  0.00    +0.120 A 
ATOM     39  N   UNL     1      23.130  24.236  26.201  0.00  0.00    -0.263 NA
ATOM     40  C   UNL     1      22.582  23.580  27.313  0.00  0.00    +0.111 A 
ENDBRANCH   4   3
ENDBRANCH  10   9
BRANCH  12  13
ATOM     13  N   UNL     1      20.519  31.076  18.344  0.00  0.00    -0.281 N 
ATOM     14  C   UNL     1      20.970  32.190  17.655  0.00  0.00    +0.248 C 
ATOM     30  O   UNL     1      20.866  33.340  18.056  0.00  0.00    -0.270 OA
ATOM     31  H   UNL     1      20.491  30.204  17.816  0.00  0.00    +0.155 HD
BRANCH  14  15
ATOM     15  C   UNL     1      21.616  32.002  16.320  0.00  0.00    +0.037 A 
ATOM     16  C   UNL     1      22.839  32.722  15.960  0.00  0.00    +0.013 A 
ATOM     17  C   UNL     1      23.433  32.535  14.659  0.00  0.00    +0.005 A 
ATOM     18  C   UNL     1      22.803  31.620  13.710  0.00  0.00    -0.033 A 
ATOM     28  C   UNL     1      21.593  30.914  14.096  0.00  0.00    +0.005 A 
ATOM     29  C   UNL     1      21.008  31.096  15.369  0.00  0.00    +0.013 A 
BRANCH  18  19
ATOM     19  C   UNL     1      23.355  31.375  12.293  0.00  0.00    +0.119 C 
BRANCH  19  20
ATOM     20  N   UNL     1      23.198  32.477  11.298  0.00  0.00    -0.302 NA
ATOM     21  C   UNL     1      21.737  32.909  11.145  0.00  0.00    +0.066 C 
ATOM     22  C   UNL     1      21.593  34.078  10.117  0.00  0.00    -0.064 C 
ATOM     23  N   UNL     1      22.172  33.642   8.770  0.00  0.00    +0.379 N 
ATOM     24  C   UNL     1      21.987  34.718   7.785  0.00  0.00    -0.096 C 
ATOM     25  H   UNL     1      21.588  32.759   8.421  0.00  0.00    -0.082 HD
ATOM     26  C   UNL     1      23.624  33.208   8.913  0.00  0.00    -0.064 C 
ATOM     27  C   UNL     1      23.759  32.066   9.959  0.00  0.00    +0.066 C 
ENDBRANCH  19  20
ENDBRANCH  18  19
ENDBRANCH  14  15
ENDBRANCH  12  13
TORSDOF 6
ENDMDL
MODEL 2
REMARK VINA RESULT:      -8.4      2.211      2.968
REMARK  Name = C:\Users\Docking\Desktop\test protocol\1iep_ligandH.pdb
REMARK  8 active torsions:
REMARK  status: ('A' for Active; 'I' for Inactive)
REMARK    1  A    between atoms: _5  and  _11
REMARK    2  A    between atoms: _19  and  _21
REMARK    3  A    between atoms: _22  and  _66
REMARK    4  A    between atoms: _27  and  _30
REMARK    5  A    between atoms: _32  and  _33
REMARK    6  A    between atoms: _38  and  _43
REMARK    7  A    between atoms: _43  and  _46
REMARK    8  A    between atoms: _53  and  _55
REMARK                            x       y       z     vdW  Elec       q    Type
REMARK                         _______ _______ _______ _____ _____    ______ ____
ROOT
ATOM     10  C   UNL     1      20.167  30.021  22.015  0.00  0.00    +0.038 A 
ATOM     11  C   UNL     1      20.480  29.933  20.634  0.00  0.00    +0.047 A 
ATOM     12  C   UNL     1      19.878  30.838  19.668  0.00  0.00    +0.035 A 
ATOM     32  C   UNL     1      18.963  31.822  20.142  0.00  0.00    +0.024 A 
ATOM     33  C   UNL     1      18.633  31.925  21.542  0.00  0.00    +0.007 A 
ATOM     34  C   UNL     1      19.222  31.033  22.500  0.00  0.00    -0.029 A 
ATOM     35  C   UNL     1      18.826  31.185  23.987  0.00  0.00    +0.045 C 
ENDROOT
BRANCH  10   9
ATOM      4  C   UNL     1      20.146  26.026  24.676  0.00  0.00    +0.077 A 
ATOM      5  C   UNL     1      18.800  25.707  24.293  0.00  0.00    +0.048 A 
ATOM      6  C   UNL     1      18.147  26.601  23.415  0.00  0.00    +0.116 A 
ATOM      7  N   UNL     1      18.800  27.726  22.960  0.00  0.00    -0.223 NA
ATOM      8  C   UNL     1      20.097  28.005  23.351  0.00  0.00    +0.220 A 
ATOM      9  N   UNL     1      20.775  29.126  22.899  0.00  0.00    -0.283 N 
ATOM     36  H   UNL     1      21.728  29.301  23.217  0.00  0.00    +0.155 HD
ATOM     37  N   UNL     1      20.742  27.168  24.189  0.00  0.00    -0.214 NA
BRANCH   4   3
ATOM      1  C   UNL     1      21.263  23.731  27.640  0.00  0.00    +0.020 A 
ATOM      2  C   UNL     1      20.425  24.541  26.786  0.00  0.00    +0.013 A 
ATOM      3  C   UNL     1      20.970  25.178  25.594  0.00  0.00    +0.019 A 
ATOM     38  C   UNL     1      22.378  24.974  25.291  0.00  0.00    +0.120 A 
ATOM     39  N   UNL     1      23.162  24.190  26.133  0.00  0.00    -0.263 NA
ATOM     40  C   UNL     1      22.649  23.574  27.284  0.00  0.00    +0.111 A 
ENDBRANCH   4   3
ENDBRANCH  10   9
BRANCH  12  13
ATOM     13  N   UNL     1      20.151  30.791  18.252  0.00  0.00    -0.281 N 
ATOM     14  C   UNL     1      20.767  31.755  17.472  0.00  0.00    +0.248 C 
ATOM     30  O   UNL     1      20.986  32.902  17.834  0.00  0.00    -0.270 OA
ATOM     31  H   UNL     1      19.854  29.944  17.768  0.00  0.00    +0.155 HD
BRANCH  14  15
ATOM     15  C   UNL     1      21.187  31.399  16.082  0.00  0.00    +0.037 A 
ATOM     16  C   UNL     1      22.383  31.988  15.476  0.00  0.00    +0.013 A 
ATOM     17  C   UNL     1      22.757  31.641  14.127  0.00  0.00    +0.005 A 
ATOM     18  C   UNL     1      21.932  30.697  13.377  0.00  0.00    -0.033 A 
ATOM     28  C   UNL     1      20.753  30.124  14.005  0.00  0.00    +0.005 A 
ATOM     29  C   UNL     1      20.383  30.463  15.325  0.00  0.00    +0.013 A 
BRANCH  18  19
ATOM     19  C   UNL     1      22.243  30.285  11.926  0.00  0.00    +0.119 C 
BRANCH  19  20
ATOM     20  N   UNL     1      22.581  28.851  11.680  0.00  0.00    -0.302 NA
ATOM     21  C   UNL     1      23.791  28.697  10.754  0.00  0.00    +0.066 C 
ATOM     22  C   UNL     1      24.145  27.192  10.525  0.00  0.00    -0.064 C 
ATOM     23  N   UNL     1      22.928  26.466   9.950  0.00  0.00    +0.379 N 
ATOM     24  C   UNL     1      23.275  25.063   9.680  0.00  0.00    -0.096 C 
ATOM     25  H   UNL     1      22.677  26.946   8.976  0.00  0.00    -0.082 HD
ATOM     26  C   UNL     1      21.719  26.616  10.864  0.00  0.00    -0.064 C 
ATOM     27  C   UNL     1      21.394  28.116  11.108  0.00  0.00    +0.066 C 
ENDBRANCH  19  20
ENDBRANCH  18  19
ENDBRANCH  14  15
ENDBRANCH  12  13
TORSDOF 6
ENDMDL
MODEL 3
REMARK VINA RESULT:      -8.4      4.010     12.504
REMARK  Name = C:\Users\Docking\Desktop\test protocol\1iep_ligandH.pdb
REMARK  8 active torsions:
REMARK  status: ('A' for Active; 'I' for Inactive)
REMARK    1  A    between atoms: _5  and  _11
REMARK    2  A    between atoms: _19  and  _21
REMARK    3  A    between atoms: _22  and  _66
REMARK    4  A    between atoms: _27  and  _30
REMARK    5  A    between atoms: _32  and  _33
REMARK    6  A    between atoms: _38  and  _43
REMARK    7  A    between atoms: _43  and  _46
REMARK    8  A    between atoms: _53  and  _55
REMARK                            x       y       z     vdW  Elec       q    Type
REMARK                         _______ _______ _______ _____ _____    ______ ____
ROOT
ATOM     10  C   UNL     1      22.859  30.570  12.420  0.00  0.00    +0.038 A 
ATOM     11  C   UNL     1      22.313  30.606  13.729  0.00  0.00    +0.047 A 
ATOM     12  C   UNL     1      22.714  31.626  14.684  0.00  0.00    +0.035 A 
ATOM     32  C   UNL     1      23.672  32.598  14.273  0.00  0.00    +0.024 A 
ATOM     33  C   UNL     1      24.239  32.576  12.947  0.00  0.00    +0.007 A 
ATOM     34  C   UNL     1      23.849  31.569  12.001  0.00  0.00    -0.029 A 
ATOM     35  C   UNL     1      24.494  31.590  10.596  0.00  0.00    +0.045 C 
ENDROOT
BRANCH  10   9
ATOM      4  C   UNL     1      23.340  26.249  10.387  0.00  0.00    +0.077 A 
ATOM      5  C   UNL     1      24.547  25.976  11.113  0.00  0.00    +0.048 A 
ATOM      6  C   UNL     1      25.014  26.977  11.994  0.00  0.00    +0.116 A 
ATOM      7  N   UNL     1      24.318  28.158  12.132  0.00  0.00    -0.223 NA
ATOM      8  C   UNL     1      23.158  28.390  11.415  0.00  0.00    +0.220 A 
ATOM      9  N   UNL     1      22.438  29.568  11.544  0.00  0.00    -0.283 N 
ATOM     36  H   UNL     1      21.591  29.703  10.992  0.00  0.00    +0.155 HD
ATOM     37  N   UNL     1      22.692  27.451  10.566  0.00  0.00    -0.214 NA
BRANCH   4   3
ATOM      1  C   UNL     1      22.812  23.751   7.423  0.00  0.00    +0.020 A 
ATOM      2  C   UNL     1      23.460  24.672   8.329  0.00  0.00    +0.013 A 
ATOM      3  C   UNL     1      22.718  25.289   9.421  0.00  0.00    +0.019 A 
ATOM     38  C   UNL     1      21.311  24.950   9.571  0.00  0.00    +0.120 A 
ATOM     39  N   UNL     1      20.714  24.061   8.683  0.00  0.00    -0.263 NA
ATOM     40  C   UNL     1      21.417  23.462   7.627  0.00  0.00    +0.111 A 
ENDBRANCH   4   3
ENDBRANCH  10   9
BRANCH  12  13
ATOM     13  N   UNL     1      22.199  31.708  16.029  0.00  0.00    -0.281 N 
ATOM     14  C   UNL     1      21.185  32.523  16.505  0.00  0.00    +0.248 C 
ATOM     30  O   UNL     1      20.709  33.465  15.888  0.00  0.00    -0.270 OA
ATOM     31  H   UNL     1      22.635  31.090  16.713  0.00  0.00    +0.155 HD
BRANCH  14  15
ATOM     15  C   UNL     1      20.630  32.264  17.868  0.00  0.00    +0.037 A 
ATOM     16  C   UNL     1      20.456  33.350  18.836  0.00  0.00    +0.013 A 
ATOM     17  C   UNL     1      19.935  33.070  20.151  0.00  0.00    +0.005 A 
ATOM     18  C   UNL     1      19.582  31.697  20.504  0.00  0.00    -0.033 A 
ATOM     28  C   UNL     1      19.760  30.640  19.522  0.00  0.00    +0.005 A 
ATOM     29  C   UNL     1      20.272  30.910  18.233  0.00  0.00    +0.013 A 
BRANCH  18  19
ATOM     19  C   UNL     1      19.039  31.303  21.890  0.00  0.00    +0.119 C 
BRANCH  19  20
ATOM     20  N   UNL     1      18.927  29.845  22.191  0.00  0.00    -0.302 NA
ATOM     21  C   UNL     1      17.561  29.483  22.781  0.00  0.00    +0.066 C 
ATOM     22  C   UNL     1      17.452  27.951  23.069  0.00  0.00    -0.064 C 
ATOM     23  N   UNL     1      18.579  27.532  24.016  0.00  0.00    +0.379 N 
ATOM     24  C   UNL     1      18.446  26.103  24.335  0.00  0.00    -0.096 C 
ATOM     25  H   UNL     1      18.453  28.103  24.964  0.00  0.00    -0.082 HD
ATOM     26  C   UNL     1      19.941  27.890  23.438  0.00  0.00    -0.064 C 
ATOM     27  C   UNL     1      20.027  29.410  23.128  0.00  0.00    +0.066 C 
ENDBRANCH  19  20
ENDBRANCH  18  19
ENDBRANCH  14  15
ENDBRANCH  12  13
TORSDOF 6
ENDMDL
MODEL 4
REMARK VINA RESULT:      -8.2     12.369     15.639
REMARK  Name = C:\Users\Docking\Desktop\test protocol\1iep_ligandH.pdb
REMARK  8 active torsions:
REMARK  status: ('A' for Active; 'I' for Inactive)
REMARK    1  A    between atoms: _5  and  _11
REMARK    2  A    between atoms: _19  and  _21
REMARK    3  A    between atoms: _22  and  _66
REMARK    4  A    between atoms: _27  and  _30
REMARK    5  A    between atoms: _32  and  _33
REMARK    6  A    between atoms: _38  and  _43
REMARK    7  A    between atoms: _43  and  _46
REMARK    8  A    between atoms: _53  and  _55
REMARK                            x       y       z     vdW  Elec       q    Type
REMARK                         _______ _______ _______ _____ _____    ______ ____
ROOT
ATOM     10  C   UNL     1      15.997  23.027  29.183  0.00  0.00    +0.038 A 
ATOM     11  C   UNL     1      17.367  22.724  28.975  0.00  0.00    +0.047 A 
ATOM     12  C   UNL     1      18.409  23.387  29.742  0.00  0.00    +0.035 A 
ATOM     32  C   UNL     1      18.021  24.352  30.717  0.00  0.00    +0.024 A 
ATOM     33  C   UNL     1      16.633  24.673  30.941  0.00  0.00    +0.007 A 
ATOM     34  C   UNL     1      15.601  24.024  30.185  0.00  0.00    -0.029 A 
ATOM     35  C   UNL     1      14.130  24.413  30.463  0.00  0.00    +0.045 C 
ENDROOT
BRANCH  10   9
ATOM      4  C   UNL     1      13.577  22.334  25.096  0.00  0.00    +0.077 A 
ATOM      5  C   UNL     1      14.263  23.408  24.438  0.00  0.00    +0.048 A 
ATOM      6  C   UNL     1      15.227  24.119  25.189  0.00  0.00    +0.116 A 
ATOM      7  N   UNL     1      15.477  23.772  26.499  0.00  0.00    -0.223 NA
ATOM      8  C   UNL     1      14.796  22.732  27.104  0.00  0.00    +0.220 A 
ATOM      9  N   UNL     1      15.037  22.361  28.418  0.00  0.00    -0.283 N 
ATOM     36  H   UNL     1      14.508  21.592  28.830  0.00  0.00    +0.155 HD
ATOM     37  N   UNL     1      13.870  22.039  26.409  0.00  0.00    -0.214 NA
BRANCH   4   3
ATOM      1  C   UNL     1      10.141  20.804  24.022  0.00  0.00    +0.020 A 
ATOM      2  C   UNL     1      11.107  21.647  24.687  0.00  0.00    +0.013 A 
ATOM      3  C   UNL     1      12.534  21.488  24.435  0.00  0.00    +0.019 A 
ATOM     38  C   UNL     1      12.953  20.458  23.496  0.00  0.00    +0.120 A 
ATOM     39  N   UNL     1      12.000  19.659  22.872  0.00  0.00    -0.263 NA
ATOM     40  C   UNL     1      10.624  19.803  23.108  0.00  0.00    +0.111 A 
ENDBRANCH   4   3
ENDBRANCH  10   9
BRANCH  12  13
ATOM     13  N   UNL     1      19.817  23.126  29.569  0.00  0.00    -0.281 N 
ATOM     14  C   UNL     1      20.673  23.666  28.624  0.00  0.00    +0.248 C 
ATOM     30  O   UNL     1      20.309  24.299  27.643  0.00  0.00    -0.270 OA
ATOM     31  H   UNL     1      20.232  22.462  30.223  0.00  0.00    +0.155 HD
BRANCH  14  15
ATOM     15  C   UNL     1      22.145  23.463  28.783  0.00  0.00    +0.037 A 
ATOM     16  C   UNL     1      23.104  24.124  27.894  0.00  0.00    +0.013 A 
ATOM     17  C   UNL     1      24.518  23.897  28.058  0.00  0.00    +0.005 A 
ATOM     18  C   UNL     1      24.982  23.004  29.118  0.00  0.00    -0.033 A 
ATOM     28  C   UNL     1      24.009  22.365  29.989  0.00  0.00    +0.005 A 
ATOM     29  C   UNL     1      22.622  22.585  29.830  0.00  0.00    +0.013 A 
BRANCH  18  19
ATOM     19  C   UNL     1      26.470  22.688  29.353  0.00  0.00    +0.119 C 
BRANCH  19  20
ATOM     20  N   UNL     1      26.807  21.326  29.867  0.00  0.00    -0.302 NA
ATOM     21  C   UNL     1      28.236  20.913  29.504  0.00  0.00    +0.066 C 
ATOM     22  C   UNL     1      28.579  19.496  30.069  0.00  0.00    -0.064 C 
ATOM     23  N   UNL     1      27.569  18.479  29.534  0.00  0.00    +0.379 N 
ATOM     24  C   UNL     1      27.923  17.136  30.017  0.00  0.00    -0.096 C 
ATOM     25  H   UNL     1      27.652  18.472  28.423  0.00  0.00    -0.082 HD
ATOM     26  C   UNL     1      26.145  18.884  29.888  0.00  0.00    -0.064 C 
ATOM     27  C   UNL     1      25.824  20.305  29.348  0.00  0.00    +0.066 C 
ENDBRANCH  19  20
ENDBRANCH  18  19
ENDBRANCH  14  15
ENDBRANCH  12  13
TORSDOF 6
ENDMDL
MODEL 5
REMARK VINA RESULT:      -8.1      1.283      1.380
REMARK  Name = C:\Users\Docking\Desktop\test protocol\1iep_ligandH.pdb
REMARK  8 active torsions:
REMARK  status: ('A' for Active; 'I' for Inactive)
REMARK    1  A    between atoms: _5  and  _11
REMARK    2  A    between atoms: _19  and  _21
REMARK    3  A    between atoms: _22  and  _66
REMARK    4  A    between atoms: _27  and  _30
REMARK    5  A    between atoms: _32  and  _33
REMARK    6  A    between atoms: _38  and  _43
REMARK    7  A    between atoms: _43  and  _46
REMARK    8  A    between atoms: _53  and  _55
REMARK                            x       y       z     vdW  Elec       q    Type
REMARK                         _______ _______ _______ _____ _____    ______ ____
ROOT
ATOM     10  C   UNL     1      20.143  29.886  22.212  0.00  0.00    +0.038 A 
ATOM     11  C   UNL     1      20.581  29.810  20.865  0.00  0.00    +0.047 A 
ATOM     12  C   UNL     1      19.997  30.656  19.836  0.00  0.00    +0.035 A 
ATOM     32  C   UNL     1      18.970  31.569  20.214  0.00  0.00    +0.024 A 
ATOM     33  C   UNL     1      18.513  31.659  21.578  0.00  0.00    +0.007 A 
ATOM     34  C   UNL     1      19.083  30.826  22.597  0.00  0.00    -0.029 A 
ATOM     35  C   UNL     1      18.549  30.960  24.043  0.00  0.00    +0.045 C 
ENDROOT
BRANCH  10   9
ATOM      4  C   UNL     1      20.203  25.925  24.921  0.00  0.00    +0.077 A 
ATOM      5  C   UNL     1      18.927  25.495  24.426  0.00  0.00    +0.048 A 
ATOM      6  C   UNL     1      18.285  26.326  23.481  0.00  0.00    +0.116 A 
ATOM      7  N   UNL     1      18.884  27.497  23.068  0.00  0.00    -0.223 NA
ATOM      8  C   UNL     1      20.115  27.882  23.567  0.00  0.00    +0.220 A 
ATOM      9  N   UNL     1      20.739  29.051  23.160  0.00  0.00    -0.283 N 
ATOM     36  H   UNL     1      21.644  29.304  23.557  0.00  0.00    +0.155 HD
ATOM     37  N   UNL     1      20.747  27.107  24.472  0.00  0.00    -0.214 NA
BRANCH   4   3
ATOM      1  C   UNL     1      21.223  23.660  27.943  0.00  0.00    +0.020 A 
ATOM      2  C   UNL     1      20.402  24.388  27.004  0.00  0.00    +0.013 A 
ATOM      3  C   UNL     1      21.007  25.153  25.921  0.00  0.00    +0.019 A 
ATOM     38  C   UNL     1      22.458  25.161  25.816  0.00  0.00    +0.120 A 
ATOM     39  N   UNL     1      23.224  24.451  26.736  0.00  0.00    -0.263 NA
ATOM     40  C   UNL     1      22.653  23.713  27.783  0.00  0.00    +0.111 A 
ENDBRANCH   4   3
ENDBRANCH  10   9
BRANCH  12  13
ATOM     13  N   UNL     1      20.395  30.617  18.450  0.00  0.00    -0.281 N 
ATOM     14  C   UNL     1      19.617  30.299  17.349  0.00  0.00    +0.248 C 
ATOM     30  O   UNL     1      18.508  29.789  17.410  0.00  0.00    -0.270 OA
ATOM     31  H   UNL     1      21.369  30.853  18.258  0.00  0.00    +0.155 HD
BRANCH  14  15
ATOM     15  C   UNL     1      20.154  30.574  15.982  0.00  0.00    +0.037 A 
ATOM     16  C   UNL     1      20.728  31.878  15.639  0.00  0.00    +0.013 A 
ATOM     17  C   UNL     1      21.224  32.122  14.307  0.00  0.00    +0.005 A 
ATOM     18  C   UNL     1      21.149  31.059  13.309  0.00  0.00    -0.033 A 
ATOM     28  C   UNL     1      20.579  29.773  13.677  0.00  0.00    +0.005 A 
ATOM     29  C   UNL     1      20.091  29.530  14.981  0.00  0.00    +0.013 A 
BRANCH  18  19
ATOM     19  C   UNL     1      21.634  31.238  11.858  0.00  0.00    +0.119 C 
BRANCH  19  20
ATOM     20  N   UNL     1      22.351  32.506  11.529  0.00  0.00    -0.302 NA
ATOM     21  C   UNL     1      21.443  33.511  10.816  0.00  0.00    +0.066 C 
ATOM     22  C   UNL     1      22.204  34.840  10.499  0.00  0.00    -0.064 C 
ATOM     23  N   UNL     1      23.438  34.528   9.650  0.00  0.00    +0.379 N 
ATOM     24  C   UNL     1      24.123  35.781   9.302  0.00  0.00    -0.096 C 
ATOM     25  H   UNL     1      23.086  34.060   8.702  0.00  0.00    -0.082 HD
ATOM     26  C   UNL     1      24.345  33.527  10.351  0.00  0.00    -0.064 C 
ATOM     27  C   UNL     1      23.572  32.221  10.688  0.00  0.00    +0.066 C 
ENDBRANCH  19  20
ENDBRANCH  18  19
ENDBRANCH  14  15
ENDBRANCH  12  13
TORSDOF 6
ENDMDL
