MODEL 1
REMARK VINA RESULT:     -10.1      0.000      0.000
REMARK  Name = C:\Users\Docking\Desktop\test protocol\1iep_ligandH.pdb
REMARK  8 active torsions:
REMARK  status: ('A' for Active; 'I' for Inactive)
REMARK    1  A    between atoms: _5  and  _11
REMARK    2  A    between atoms: _19  and  _21
REMARK    3  A    between atoms: _22  and  _66
REMARK    4  A    between atoms: _27  and  _30
REMARK    5  A    between atoms: _32  and  _33
REMARK    6  A    between atoms: _38  and  _43
REMARK    7  A    between atoms: _43  and  _46
REMARK    8  A    between atoms: _53  and  _55
REMARK                            x       y       z     vdW  Elec       q    Type
REMARK                         _______ _______ _______ _____ _____    ______ ____
ROOT
ATOM     10  C   UNL     1      -8.901  15.127  30.744  0.00  0.00    +0.038 A 
ATOM     11  C   UNL     1      -8.510  15.164  29.382  0.00  0.00    +0.047 A 
ATOM     12  C   UNL     1      -7.536  16.134  28.905  0.00  0.00    +0.035 A 
ATOM     32  C   UNL     1      -6.978  17.049  29.845  0.00  0.00    +0.024 A 
ATOM     33  C   UNL     1      -7.365  17.026  31.233  0.00  0.00    +0.007 A 
ATOM     34  C   UNL     1      -8.328  16.073  31.709  0.00  0.00    -0.029 A 
ATOM     35  C   UNL     1      -8.711  16.098  33.207  0.00  0.00    +0.045 C 
ENDROOT
BRANCH  10   9
ATOM      4  C   UNL     1     -13.199  13.016  30.411  0.00  0.00    +0.077 A 
ATOM      5  C   UNL     1     -13.618  13.901  29.363  0.00  0.00    +0.048 A 
ATOM      6  C   UNL     1     -12.701  14.891  28.944  0.00  0.00    +0.116 A 
ATOM      7  N   UNL     1     -11.459  14.979  29.535  0.00  0.00    -0.223 NA
ATOM      8  C   UNL     1     -11.087  14.110  30.544  0.00  0.00    +0.220 A 
ATOM      9  N   UNL     1      -9.840  14.175  31.147  0.00  0.00    -0.283 N 
ATOM     36  H   UNL     1      -9.607  13.520  31.893  0.00  0.00    +0.155 HD
ATOM     37  N   UNL     1     -11.945  13.157  30.963  0.00  0.00    -0.214 NA
BRANCH   4   3
ATOM      1  C   UNL     1     -14.643   9.483  31.268  0.00  0.00    +0.020 A 
ATOM      2  C   UNL     1     -13.786  10.505  30.714  0.00  0.00    +0.013 A 
ATOM      3  C   UNL     1     -14.054  11.916  30.960  0.00  0.00    +0.019 A 
ATOM     38  C   UNL     1     -15.206  12.262  31.779  0.00  0.00    +0.120 A 
ATOM     39  N   UNL     1     -16.015  11.256  32.298  0.00  0.00    -0.263 NA
ATOM     40  C   UNL     1     -15.767   9.895  32.066  0.00  0.00    +0.111 A 
ENDBRANCH   4   3
ENDBRANCH  10   9
BRANCH  12  13
ATOM     13  N   UNL     1      -7.105  16.224  27.532  0.00  0.00    -0.281 N 
ATOM     14  C   UNL     1      -7.631  17.018  26.525  0.00  0.00    +0.248 C 
ATOM     30  O   UNL     1      -8.694  17.617  26.601  0.00  0.00    -0.270 OA
ATOM     31  H   UNL     1      -6.318  15.631  27.269  0.00  0.00    +0.155 HD
BRANCH  14  15
ATOM     15  C   UNL     1      -6.873  17.156  25.244  0.00  0.00    +0.037 A 
ATOM     16  C   UNL     1      -5.413  17.043  25.209  0.00  0.00    +0.013 A 
ATOM     17  C   UNL     1      -4.705  17.197  23.963  0.00  0.00    +0.005 A 
ATOM     18  C   UNL     1      -5.459  17.464  22.740  0.00  0.00    -0.033 A 
ATOM     28  C   UNL     1      -6.907  17.566  22.802  0.00  0.00    +0.005 A 
ATOM     29  C   UNL     1      -7.604  17.417  24.023  0.00  0.00    +0.013 A 
BRANCH  18  19
ATOM     19  C   UNL     1      -4.785  17.663  21.369  0.00  0.00    +0.119 C 
BRANCH  19  20
ATOM     20  N   UNL     1      -4.165  16.463  20.731  0.00  0.00    -0.302 NA
ATOM     21  C   UNL     1      -2.647  16.429  20.927  0.00  0.00    +0.066 C 
ATOM     22  C   UNL     1      -2.018  15.156  20.273  0.00  0.00    -0.064 C 
ATOM     23  N   UNL     1      -2.373  15.122  18.785  0.00  0.00    +0.379 N 
ATOM     24  C   UNL     1      -1.735  13.957  18.155  0.00  0.00    -0.096 C 
ATOM     25  H   UNL     1      -1.946  16.037  18.315  0.00  0.00    -0.082 HD
ATOM     26  C   UNL     1      -3.881  15.159  18.581  0.00  0.00    -0.064 C 
ATOM     27  C   UNL     1      -4.500  16.412  19.261  0.00  0.00    +0.066 C 
ENDBRANCH  19  20
ENDBRANCH  18  19
ENDBRANCH  14  15
ENDBRANCH  12  13
TORSDOF 6
ENDMDL
MODEL 2
REMARK VINA RESULT:      -9.8      3.501      5.414
REMARK  Name = C:\Users\Docking\Desktop\test protocol\1iep_ligandH.pdb
REMARK  8 active torsions:
REMARK  status: ('A' for Active; 'I' for Inactive)
REMARK    1  A    between atoms: _5  and  _11
REMARK    2  A    between atoms: _19  and  _21
REMARK    3  A    between atoms: _22  and  _66
REMARK    4  A    between atoms: _27  and  _30
REMARK    5  A    between atoms: _32  and  _33
REMARK    6  A    between atoms: _38  and  _43
REMARK    7  A    between atoms: _43  and  _46
REMARK    8  A    between atoms: _53  and  _55
REMARK                            x       y       z     vdW  Elec       q    Type
REMARK                         _______ _______ _______ _____ _____    ______ ____
ROOT
ATOM     10  C   UNL     1     -13.278  13.876  31.122  0.00  0.00    +0.038 A 
ATOM     11  C   UNL     1     -12.243  14.354  30.279  0.00  0.00    +0.047 A 
ATOM     12  C   UNL     1     -12.508  14.730  28.900  0.00  0.00    +0.035 A 
ATOM     32  C   UNL     1     -13.842  14.610  28.412  0.00  0.00    +0.024 A 
ATOM     33  C   UNL     1     -14.907  14.125  29.254  0.00  0.00    +0.007 A 
ATOM     34  C   UNL     1     -14.650  13.750  30.615  0.00  0.00    -0.029 A 
ATOM     35  C   UNL     1     -15.829  13.230  31.471  0.00  0.00    +0.045 C 
ENDROOT
BRANCH  10   9
ATOM      4  C   UNL     1     -12.222  10.645  34.511  0.00  0.00    +0.077 A 
ATOM      5  C   UNL     1     -12.326   9.553  33.586  0.00  0.00    +0.048 A 
ATOM      6  C   UNL     1     -12.661   9.865  32.249  0.00  0.00    +0.116 A 
ATOM      7  N   UNL     1     -12.873  11.175  31.876  0.00  0.00    -0.223 NA
ATOM      8  C   UNL     1     -12.766  12.204  32.793  0.00  0.00    +0.220 A 
ATOM      9  N   UNL     1     -12.967  13.529  32.439  0.00  0.00    -0.283 N 
ATOM     36  H   UNL     1     -12.886  14.258  33.147  0.00  0.00    +0.155 HD
ATOM     37  N   UNL     1     -12.449  11.932  34.076  0.00  0.00    -0.214 NA
BRANCH   4   3
ATOM      1  C   UNL     1     -11.572   9.080  38.036  0.00  0.00    +0.020 A 
ATOM      2  C   UNL     1     -11.919   9.189  36.638  0.00  0.00    +0.013 A 
ATOM      3  C   UNL     1     -11.873  10.476  35.957  0.00  0.00    +0.019 A 
ATOM     38  C   UNL     1     -11.468  11.644  36.725  0.00  0.00    +0.120 A 
ATOM     39  N   UNL     1     -11.141  11.509  38.071  0.00  0.00    -0.263 NA
ATOM     40  C   UNL     1     -11.183  10.276  38.737  0.00  0.00    +0.111 A 
ENDBRANCH   4   3
ENDBRANCH  10   9
BRANCH  12  13
ATOM     13  N   UNL     1     -11.496  15.214  27.995  0.00  0.00    -0.281 N 
ATOM     14  C   UNL     1     -10.842  14.513  26.995  0.00  0.00    +0.248 C 
ATOM     30  O   UNL     1     -10.876  13.298  26.867  0.00  0.00    -0.270 OA
ATOM     31  H   UNL     1     -11.228  16.192  28.104  0.00  0.00    +0.155 HD
BRANCH  14  15
ATOM     15  C   UNL     1     -10.019  15.269  26.002  0.00  0.00    +0.037 A 
ATOM     16  C   UNL     1      -9.588  14.652  24.745  0.00  0.00    +0.013 A 
ATOM     17  C   UNL     1      -8.781  15.398  23.813  0.00  0.00    +0.005 A 
ATOM     18  C   UNL     1      -8.400  16.772  24.134  0.00  0.00    -0.033 A 
ATOM     28  C   UNL     1      -8.846  17.361  25.386  0.00  0.00    +0.005 A 
ATOM     29  C   UNL     1      -9.636  16.632  26.302  0.00  0.00    +0.013 A 
BRANCH  18  19
ATOM     19  C   UNL     1      -7.523  17.635  23.208  0.00  0.00    +0.119 C 
BRANCH  19  20
ATOM     20  N   UNL     1      -6.054  17.366  23.212  0.00  0.00    -0.302 NA
ATOM     21  C   UNL     1      -5.529  17.063  24.618  0.00  0.00    +0.066 C 
ATOM     22  C   UNL     1      -3.995  16.763  24.600  0.00  0.00    -0.064 C 
ATOM     23  N   UNL     1      -3.252  17.952  23.989  0.00  0.00    +0.379 N 
ATOM     24  C   UNL     1      -1.805  17.697  24.024  0.00  0.00    -0.096 C 
ATOM     25  H   UNL     1      -3.454  18.842  24.629  0.00  0.00    -0.082 HD
ATOM     26  C   UNL     1      -3.770  18.262  22.592  0.00  0.00    -0.064 C 
ATOM     27  C   UNL     1      -5.301  18.530  22.616  0.00  0.00    +0.066 C 
ENDBRANCH  19  20
ENDBRANCH  18  19
ENDBRANCH  14  15
ENDBRANCH  12  13
TORSDOF 6
ENDMDL
MODEL 3
REMARK VINA RESULT:      -9.8      4.641     12.370
REMARK  Name = C:\Users\Docking\Desktop\test protocol\1iep_ligandH.pdb
REMARK  8 active torsions:
REMARK  status: ('A' for Active; 'I' for Inactive)
REMARK    1  A    between atoms: _5  and  _11
REMARK    2  A    between atoms: _19  and  _21
REMARK    3  A    between atoms: _22  and  _66
REMARK    4  A    between atoms: _27  and  _30
REMARK    5  A    between atoms: _32  and  _33
REMARK    6  A    between atoms: _38  and  _43
REMARK    7  A    between atoms: _43  and  _46
REMARK    8  A    between atoms: _53  and  _55
REMARK                            x       y       z     vdW  Elec       q    Type
REMARK                         _______ _______ _______ _____ _____    ______ ____
ROOT
ATOM     10  C   UNL     1     -11.622  14.167  28.308  0.00  0.00    +0.038 A 
ATOM     11  C   UNL     1     -11.446  12.846  28.791  0.00  0.00    +0.047 A 
ATOM     12  C   UNL     1     -12.572  12.066  29.279  0.00  0.00    +0.035 A 
ATOM     32  C   UNL     1     -13.867  12.662  29.257  0.00  0.00    +0.024 A 
ATOM     33  C   UNL     1     -14.064  14.005  28.770  0.00  0.00    +0.007 A 
ATOM     34  C   UNL     1     -12.956  14.780  28.290  0.00  0.00    -0.029 A 
ATOM     35  C   UNL     1     -13.226  16.217  27.786  0.00  0.00    +0.045 C 
ENDROOT
BRANCH  10   9
ATOM      4  C   UNL     1      -7.769  16.932  29.046  0.00  0.00    +0.077 A 
ATOM      5  C   UNL     1      -8.018  17.004  30.457  0.00  0.00    +0.048 A 
ATOM      6  C   UNL     1      -9.152  16.321  30.952  0.00  0.00    +0.116 A 
ATOM      7  N   UNL     1      -9.969  15.622  30.090  0.00  0.00    -0.223 NA
ATOM      8  C   UNL     1      -9.701  15.574  28.735  0.00  0.00    +0.220 A 
ATOM      9  N   UNL     1     -10.505  14.870  27.851  0.00  0.00    -0.283 N 
ATOM     36  H   UNL     1     -10.278  14.866  26.857  0.00  0.00    +0.155 HD
ATOM     37  N   UNL     1      -8.626  16.219  28.237  0.00  0.00    -0.214 NA
BRANCH   4   3
ATOM      1  C   UNL     1      -4.140  18.005  28.057  0.00  0.00    +0.020 A 
ATOM      2  C   UNL     1      -5.223  17.335  28.739  0.00  0.00    +0.013 A 
ATOM      3  C   UNL     1      -6.609  17.598  28.373  0.00  0.00    +0.019 A 
ATOM     38  C   UNL     1      -6.867  18.551  27.303  0.00  0.00    +0.120 A 
ATOM     39  N   UNL     1      -5.803  19.181  26.665  0.00  0.00    -0.263 NA
ATOM     40  C   UNL     1      -4.466  18.938  27.010  0.00  0.00    +0.111 A 
ENDBRANCH   4   3
ENDBRANCH  10   9
BRANCH  12  13
ATOM     13  N   UNL     1     -12.453  10.722  29.789  0.00  0.00    -0.281 N 
ATOM     14  C   UNL     1     -12.617  10.289  31.094  0.00  0.00    +0.248 C 
ATOM     30  O   UNL     1     -12.684  11.029  32.065  0.00  0.00    -0.270 OA
ATOM     31  H   UNL     1     -12.218  10.003  29.104  0.00  0.00    +0.155 HD
BRANCH  14  15
ATOM     15  C   UNL     1     -12.707   8.821  31.362  0.00  0.00    +0.037 A 
ATOM     16  C   UNL     1     -11.568   7.933  31.116  0.00  0.00    +0.013 A 
ATOM     17  C   UNL     1     -11.687   6.518  31.367  0.00  0.00    +0.005 A 
ATOM     18  C   UNL     1     -12.951   5.984  31.868  0.00  0.00    -0.033 A 
ATOM     28  C   UNL     1     -14.063   6.888  32.108  0.00  0.00    +0.005 A 
ATOM     29  C   UNL     1     -13.951   8.275  31.863  0.00  0.00    +0.013 A 
BRANCH  18  19
ATOM     19  C   UNL     1     -13.174   4.485  32.144  0.00  0.00    +0.119 C 
BRANCH  19  20
ATOM     20  N   UNL     1     -13.173   3.566  30.967  0.00  0.00    -0.302 NA
ATOM     21  C   UNL     1     -11.769   3.047  30.644  0.00  0.00    +0.066 C 
ATOM     22  C   UNL     1     -11.790   2.070  29.424  0.00  0.00    -0.064 C 
ATOM     23  N   UNL     1     -12.396   2.782  28.214  0.00  0.00    +0.379 N 
ATOM     24  C   UNL     1     -12.364   1.884  27.050  0.00  0.00    -0.096 C 
ATOM     25  H   UNL     1     -11.751   3.661  27.981  0.00  0.00    -0.082 HD
ATOM     26  C   UNL     1     -13.792   3.303  28.527  0.00  0.00    -0.064 C 
ATOM     27  C   UNL     1     -13.764   4.250  29.759  0.00  0.00    +0.066 C 
ENDBRANCH  19  20
ENDBRANCH  18  19
ENDBRANCH  14  15
ENDBRANCH  12  13
TORSDOF 6
ENDMDL
MODEL 4
REMARK VINA RESULT:      -9.7      2.740      4.746
REMARK  Name = C:\Users\Docking\Desktop\test protocol\1iep_ligandH.pdb
REMARK  8 active torsions:
REMARK  status: ('A' for Active; 'I' for Inactive)
REMARK    1  A    between atoms: _5  and  _11
REMARK    2  A    between atoms: _19  and  _21
REMARK    3  A    between atoms: _22  and  _66
REMARK    4  A    between atoms: _27  and  _30
REMARK    5  A    between atoms: _32  and  _33
REMARK    6  A    between atoms: _38  and  _43
REMARK    7  A    between atoms: _43  and  _46
REMARK    8  A    between atoms: _53  and  _55
REMARK                            x       y       z     vdW  Elec       q    Type
REMARK                         _______ _______ _______ _____ _____    ______ ____
ROOT
ATOM     10  C   UNL     1     -12.665  13.975  30.507  0.00  0.00    +0.038 A 
ATOM     11  C   UNL     1     -11.392  14.471  30.128  0.00  0.00    +0.047 A 
ATOM     12  C   UNL     1     -11.212  15.215  28.891  0.00  0.00    +0.035 A 
ATOM     32  C   UNL     1     -12.352  15.439  28.066  0.00  0.00    +0.024 A 
ATOM     33  C   UNL     1     -13.654  14.942  28.436  0.00  0.00    +0.007 A 
ATOM     34  C   UNL     1     -13.837  14.204  29.653  0.00  0.00    -0.029 A 
ATOM     35  C   UNL     1     -15.254  13.689  29.996  0.00  0.00    +0.045 C 
ENDROOT
BRANCH  10   9
ATOM      4  C   UNL     1     -12.564   9.900  33.041  0.00  0.00    +0.077 A 
ATOM      5  C   UNL     1     -12.284   9.112  31.875  0.00  0.00    +0.048 A 
ATOM      6  C   UNL     1     -12.181   9.793  30.641  0.00  0.00    +0.116 A 
ATOM      7  N   UNL     1     -12.347  11.161  30.590  0.00  0.00    -0.223 NA
ATOM      8  C   UNL     1     -12.618  11.890  31.733  0.00  0.00    +0.220 A 
ATOM      9  N   UNL     1     -12.781  13.266  31.705  0.00  0.00    -0.283 N 
ATOM     36  H   UNL     1     -12.987  13.767  32.569  0.00  0.00    +0.155 HD
ATOM     37  N   UNL     1     -12.722  11.262  32.923  0.00  0.00    -0.214 NA
BRANCH   4   3
ATOM      1  C   UNL     1     -13.053   7.405  36.014  0.00  0.00    +0.020 A 
ATOM      2  C   UNL     1     -12.930   7.908  34.665  0.00  0.00    +0.013 A 
ATOM      3  C   UNL     1     -12.699   9.326  34.417  0.00  0.00    +0.019 A 
ATOM     38  C   UNL     1     -12.595  10.214  35.565  0.00  0.00    +0.120 A 
ATOM     39  N   UNL     1     -12.719   9.701  36.852  0.00  0.00    -0.263 NA
ATOM     40  C   UNL     1     -12.943   8.339  37.103  0.00  0.00    +0.111 A 
ENDBRANCH   4   3
ENDBRANCH  10   9
BRANCH  12  13
ATOM     13  N   UNL     1      -9.942  15.736  28.451  0.00  0.00    -0.281 N 
ATOM     14  C   UNL     1      -8.957  16.341  29.215  0.00  0.00    +0.248 C 
ATOM     30  O   UNL     1      -9.112  16.719  30.367  0.00  0.00    -0.270 OA
ATOM     31  H   UNL     1      -9.744  15.649  27.454  0.00  0.00    +0.155 HD
BRANCH  14  15
ATOM     15  C   UNL     1      -7.611  16.571  28.608  0.00  0.00    +0.037 A 
ATOM     16  C   UNL     1      -6.497  17.091  29.405  0.00  0.00    +0.013 A 
ATOM     17  C   UNL     1      -5.213  17.319  28.791  0.00  0.00    +0.005 A 
ATOM     18  C   UNL     1      -5.036  17.026  27.371  0.00  0.00    -0.033 A 
ATOM     28  C   UNL     1      -6.157  16.506  26.605  0.00  0.00    +0.005 A 
ATOM     29  C   UNL     1      -7.417  16.282  27.203  0.00  0.00    +0.013 A 
BRANCH  18  19
ATOM     19  C   UNL     1      -3.708  17.260  26.627  0.00  0.00    +0.119 C 
BRANCH  19  20
ATOM     20  N   UNL     1      -3.756  17.297  25.135  0.00  0.00    -0.302 NA
ATOM     21  C   UNL     1      -2.710  16.375  24.503  0.00  0.00    +0.066 C 
ATOM     22  C   UNL     1      -2.790  16.410  22.942  0.00  0.00    -0.064 C 
ATOM     23  N   UNL     1      -2.607  17.849  22.457  0.00  0.00    +0.379 N 
ATOM     24  C   UNL     1      -2.624  17.876  20.987  0.00  0.00    -0.096 C 
ATOM     25  H   UNL     1      -1.601  18.193  22.790  0.00  0.00    -0.082 HD
ATOM     26  C   UNL     1      -3.642  18.773  23.083  0.00  0.00    -0.064 C 
ATOM     27  C   UNL     1      -3.574  18.709  24.634  0.00  0.00    +0.066 C 
ENDBRANCH  19  20
ENDBRANCH  18  19
ENDBRANCH  14  15
ENDBRANCH  12  13
TORSDOF 6
ENDMDL
MODEL 5
REMARK VINA RESULT:      -9.7      3.295      6.045
REMARK  Name = C:\Users\Docking\Desktop\test protocol\1iep_ligandH.pdb
REMARK  8 active torsions:
REMARK  status: ('A' for Active; 'I' for Inactive)
REMARK    1  A    between atoms: _5  and  _11
REMARK    2  A    between atoms: _19  and  _21
REMARK    3  A    between atoms: _22  and  _66
REMARK    4  A    between atoms: _27  and  _30
REMARK    5  A    between atoms: _32  and  _33
REMARK    6  A    between atoms: _38  and  _43
REMARK    7  A    between atoms: _43  and  _46
REMARK    8  A    between atoms: _53  and  _55
REMARK                            x       y       z     vdW  Elec       q    Type
REMARK                         _______ _______ _______ _____ _____    ______ ____
ROOT
ATOM     10  C   UNL     1     -12.982  12.900  31.615  0.00  0.00    +0.038 A 
ATOM     11  C   UNL     1     -11.735  13.396  31.158  0.00  0.00    +0.047 A 
ATOM     12  C   UNL     1     -11.646  14.223  29.964  0.00  0.00    +0.035 A 
ATOM     32  C   UNL     1     -12.848  14.527  29.262  0.00  0.00    +0.024 A 
ATOM     33  C   UNL     1     -14.125  14.030  29.712  0.00  0.00    +0.007 A 
ATOM     34  C   UNL     1     -14.218  13.212  30.887  0.00  0.00    -0.029 A 
ATOM     35  C   UNL     1     -15.613  12.702  31.320  0.00  0.00    +0.045 C 
ENDROOT
BRANCH  10   9
ATOM      4  C   UNL     1     -12.479   8.699  33.881  0.00  0.00    +0.077 A 
ATOM      5  C   UNL     1     -12.161   8.012  32.662  0.00  0.00    +0.048 A 
ATOM      6  C   UNL     1     -12.145   8.775  31.473  0.00  0.00    +0.116 A 
ATOM      7  N   UNL     1     -12.426  10.124  31.511  0.00  0.00    -0.223 NA
ATOM      8  C   UNL     1     -12.731  10.754  32.704  0.00  0.00    +0.220 A 
ATOM      9  N   UNL     1     -13.010  12.111  32.767  0.00  0.00    -0.283 N 
ATOM     36  H   UNL     1     -13.237  12.537  33.665  0.00  0.00    +0.155 HD
ATOM     37  N   UNL     1     -12.755  10.047  33.853  0.00  0.00    -0.214 NA
BRANCH   4   3
ATOM      1  C   UNL     1     -13.399   6.271  36.807  0.00  0.00    +0.020 A 
ATOM      2  C   UNL     1     -13.385   6.880  35.496  0.00  0.00    +0.013 A 
ATOM      3  C   UNL     1     -12.534   8.030  35.219  0.00  0.00    +0.019 A 
ATOM     38  C   UNL     1     -11.703   8.544  36.298  0.00  0.00    +0.120 A 
ATOM     39  N   UNL     1     -11.739   7.938  37.550  0.00  0.00    -0.263 NA
ATOM     40  C   UNL     1     -12.555   6.832  37.829  0.00  0.00    +0.111 A 
ENDBRANCH   4   3
ENDBRANCH  10   9
BRANCH  12  13
ATOM     13  N   UNL     1     -10.407  14.748  29.447  0.00  0.00    -0.281 N 
ATOM     14  C   UNL     1      -9.883  16.019  29.619  0.00  0.00    +0.248 C 
ATOM     30  O   UNL     1     -10.507  16.969  30.069  0.00  0.00    -0.270 OA
ATOM     31  H   UNL     1      -9.847  14.105  28.887  0.00  0.00    +0.155 HD
BRANCH  14  15
ATOM     15  C   UNL     1      -8.465  16.276  29.221  0.00  0.00    +0.037 A 
ATOM     16  C   UNL     1      -7.921  15.750  27.967  0.00  0.00    +0.013 A 
ATOM     17  C   UNL     1      -6.545  15.998  27.615  0.00  0.00    +0.005 A 
ATOM     18  C   UNL     1      -5.704  16.779  28.519  0.00  0.00    -0.033 A 
ATOM     28  C   UNL     1      -6.272  17.293  29.755  0.00  0.00    +0.005 A 
ATOM     29  C   UNL     1      -7.619  17.051  30.104  0.00  0.00    +0.013 A 
BRANCH  18  19
ATOM     19  C   UNL     1      -4.220  17.074  28.235  0.00  0.00    +0.119 C 
BRANCH  19  20
ATOM     20  N   UNL     1      -3.904  17.879  27.017  0.00  0.00    -0.302 NA
ATOM     21  C   UNL     1      -4.938  18.983  26.774  0.00  0.00    +0.066 C 
ATOM     22  C   UNL     1      -4.580  19.830  25.510  0.00  0.00    -0.064 C 
ATOM     23  N   UNL     1      -4.477  18.907  24.294  0.00  0.00    +0.379 N 
ATOM     24  C   UNL     1      -4.198  19.707  23.093  0.00  0.00    -0.096 C 
ATOM     25  H   UNL     1      -5.471  18.421  24.154  0.00  0.00    -0.082 HD
ATOM     26  C   UNL     1      -3.454  17.805  24.528  0.00  0.00    -0.064 C 
ATOM     27  C   UNL     1      -3.803  16.988  25.804  0.00  0.00    +0.066 C 
ENDBRANCH  19  20
ENDBRANCH  18  19
ENDBRANCH  14  15
ENDBRANCH  12  13
TORSDOF 6
ENDMDL
