MODEL 1
REMARK VINA RESULT:      -8.9      0.000      0.000
REMARK  Name = C:\Users\Docking\Desktop\test protocol\1iep_ligandH.pdb
REMARK  8 active torsions:
REMARK  status: ('A' for Active; 'I' for Inactive)
REMARK    1  A    between atoms: _5  and  _11
REMARK    2  A    between atoms: _19  and  _21
REMARK    3  A    between atoms: _22  and  _66
REMARK    4  A    between atoms: _27  and  _30
REMARK    5  A    between atoms: _32  and  _33
REMARK    6  A    between atoms: _38  and  _43
REMARK    7  A    between atoms: _43  and  _46
REMARK    8  A    between atoms: _53  and  _55
REMARK                            x       y       z     vdW  Elec       q    Type
REMARK                         _______ _______ _______ _____ _____    ______ ____
ROOT
ATOM     10  C   UNL     1      19.735  18.031   6.099  0.00  0.00    +0.038 A 
ATOM     11  C   UNL     1      20.305  17.466   7.268  0.00  0.00    +0.047 A 
ATOM     12  C   UNL     1      21.642  17.835   7.708  0.00  0.00    +0.035 A 
ATOM     32  C   UNL     1      22.368  18.786   6.934  0.00  0.00    +0.024 A 
ATOM     33  C   UNL     1      21.805  19.370   5.743  0.00  0.00    +0.007 A 
ATOM     34  C   UNL     1      20.488  19.008   5.303  0.00  0.00    -0.029 A 
ATOM     35  C   UNL     1      19.936  19.661   4.014  0.00  0.00    +0.045 C 
ENDROOT
BRANCH  10   9
ATOM      4  C   UNL     1      14.962  18.146   6.593  0.00  0.00    +0.077 A 
ATOM      5  C   UNL     1      15.040  19.040   7.713  0.00  0.00    +0.048 A 
ATOM      6  C   UNL     1      16.328  19.441   8.134  0.00  0.00    +0.116 A 
ATOM      7  N   UNL     1      17.447  18.976   7.478  0.00  0.00    -0.223 NA
ATOM      8  C   UNL     1      17.336  18.114   6.403  0.00  0.00    +0.220 A 
ATOM      9  N   UNL     1      18.448  17.640   5.723  0.00  0.00    -0.283 N 
ATOM     36  H   UNL     1      18.325  16.999   4.939  0.00  0.00    +0.155 HD
ATOM     37  N   UNL     1      16.118  17.715   5.982  0.00  0.00    -0.214 NA
BRANCH   4   3
ATOM      1  C   UNL     1      12.332  16.047   4.599  0.00  0.00    +0.020 A 
ATOM      2  C   UNL     1      13.603  16.500   5.117  0.00  0.00    +0.013 A 
ATOM      3  C   UNL     1      13.673  17.636   6.028  0.00  0.00    +0.019 A 
ATOM     38  C   UNL     1      12.430  18.295   6.399  0.00  0.00    +0.120 A 
ATOM     39  N   UNL     1      11.222  17.837   5.884  0.00  0.00    -0.263 NA
ATOM     40  C   UNL     1      11.142  16.746   5.005  0.00  0.00    +0.111 A 
ENDBRANCH   4   3
ENDBRANCH  10   9
BRANCH  12  13
ATOM     13  N   UNL     1      22.276  17.288   8.882  0.00  0.00    -0.281 N 
ATOM     14  C   UNL     1      23.332  16.394   8.941  0.00  0.00    +0.248 C 
ATOM     30  O   UNL     1      23.756  15.761   7.985  0.00  0.00    -0.270 OA
ATOM     31  H   UNL     1      21.900  17.598   9.778  0.00  0.00    +0.155 HD
BRANCH  14  15
ATOM     15  C   UNL     1      24.006  16.159  10.254  0.00  0.00    +0.037 A 
ATOM     16  C   UNL     1      25.448  16.367  10.416  0.00  0.00    +0.013 A 
ATOM     17  C   UNL     1      26.076  16.116  11.689  0.00  0.00    +0.005 A 
ATOM     18  C   UNL     1      25.261  15.655  12.811  0.00  0.00    -0.033 A 
ATOM     28  C   UNL     1      23.833  15.462  12.624  0.00  0.00    +0.005 A 
ATOM     29  C   UNL     1      23.214  15.706  11.377  0.00  0.00    +0.013 A 
BRANCH  18  19
ATOM     19  C   UNL     1      25.851  15.343  14.199  0.00  0.00    +0.119 C 
BRANCH  19  20
ATOM     20  N   UNL     1      25.702  16.387  15.256  0.00  0.00    -0.302 NA
ATOM     21  C   UNL     1      24.469  16.147  16.132  0.00  0.00    +0.066 C 
ATOM     22  C   UNL     1      24.341  17.236  17.246  0.00  0.00    -0.064 C 
ATOM     23  N   UNL     1      24.285  18.621  16.598  0.00  0.00    +0.379 N 
ATOM     24  C   UNL     1      24.106  19.643  17.640  0.00  0.00    -0.096 C 
ATOM     25  H   UNL     1      23.386  18.649  15.939  0.00  0.00    -0.082 HD
ATOM     26  C   UNL     1      25.506  18.866  15.724  0.00  0.00    -0.064 C 
ATOM     27  C   UNL     1      25.640  17.762  14.638  0.00  0.00    +0.066 C 
ENDBRANCH  19  20
ENDBRANCH  18  19
ENDBRANCH  14  15
ENDBRANCH  12  13
TORSDOF 6
ENDMDL
MODEL 2
REMARK VINA RESULT:      -8.0      4.042      7.592
REMARK  Name = C:\Users\Docking\Desktop\test protocol\1iep_ligandH.pdb
REMARK  8 active torsions:
REMARK  status: ('A' for Active; 'I' for Inactive)
REMARK    1  A    between atoms: _5  and  _11
REMARK    2  A    between atoms: _19  and  _21
REMARK    3  A    between atoms: _22  and  _66
REMARK    4  A    between atoms: _27  and  _30
REMARK    5  A    between atoms: _32  and  _33
REMARK    6  A    between atoms: _38  and  _43
REMARK    7  A    between atoms: _43  and  _46
REMARK    8  A    between atoms: _53  and  _55
REMARK                            x       y       z     vdW  Elec       q    Type
REMARK                         _______ _______ _______ _____ _____    ______ ____
ROOT
ATOM     10  C   UNL     1      24.130  16.167  11.192  0.00  0.00    +0.038 A 
ATOM     11  C   UNL     1      23.736  16.109  12.553  0.00  0.00    +0.047 A 
ATOM     12  C   UNL     1      24.722  16.022  13.619  0.00  0.00    +0.035 A 
ATOM     32  C   UNL     1      26.101  15.999  13.263  0.00  0.00    +0.024 A 
ATOM     33  C   UNL     1      26.520  16.057  11.884  0.00  0.00    +0.007 A 
ATOM     34  C   UNL     1      25.552  16.140  10.828  0.00  0.00    -0.029 A 
ATOM     35  C   UNL     1      26.057  16.192   9.368  0.00  0.00    +0.045 C 
ENDROOT
BRANCH  10   9
ATOM      4  C   UNL     1      21.261  18.677   8.275  0.00  0.00    +0.077 A 
ATOM      5  C   UNL     1      21.755  19.929   8.770  0.00  0.00    +0.048 A 
ATOM      6  C   UNL     1      22.742  19.884   9.780  0.00  0.00    +0.116 A 
ATOM      7  N   UNL     1      23.194  18.671  10.252  0.00  0.00    -0.223 NA
ATOM      8  C   UNL     1      22.695  17.481   9.755  0.00  0.00    +0.220 A 
ATOM      9  N   UNL     1      23.141  16.250  10.209  0.00  0.00    -0.283 N 
ATOM     36  H   UNL     1      22.743  15.395   9.822  0.00  0.00    +0.155 HD
ATOM     37  N   UNL     1      21.751  17.498   8.791  0.00  0.00    -0.214 NA
BRANCH   4   3
ATOM      1  C   UNL     1      18.025  17.700   6.306  0.00  0.00    +0.020 A 
ATOM      2  C   UNL     1      18.999  17.780   7.370  0.00  0.00    +0.013 A 
ATOM      3  C   UNL     1      20.220  18.560   7.206  0.00  0.00    +0.019 A 
ATOM     38  C   UNL     1      20.425  19.252   5.943  0.00  0.00    +0.120 A 
ATOM     39  N   UNL     1      19.470  19.156   4.935  0.00  0.00    -0.263 NA
ATOM     40  C   UNL     1      18.293  18.407   5.082  0.00  0.00    +0.111 A 
ENDBRANCH   4   3
ENDBRANCH  10   9
BRANCH  12  13
ATOM     13  N   UNL     1      24.381  15.952  15.018  0.00  0.00    -0.281 N 
ATOM     14  C   UNL     1      24.378  16.980  15.947  0.00  0.00    +0.248 C 
ATOM     30  O   UNL     1      24.878  18.080  15.761  0.00  0.00    -0.270 OA
ATOM     31  H   UNL     1      24.108  15.033  15.367  0.00  0.00    +0.155 HD
BRANCH  14  15
ATOM     15  C   UNL     1      23.742  16.749  17.279  0.00  0.00    +0.037 A 
ATOM     16  C   UNL     1      24.157  17.508  18.462  0.00  0.00    +0.013 A 
ATOM     17  C   UNL     1      23.538  17.252  19.739  0.00  0.00    +0.005 A 
ATOM     18  C   UNL     1      22.496  16.233  19.839  0.00  0.00    -0.033 A 
ATOM     28  C   UNL     1      22.100  15.499  18.648  0.00  0.00    +0.005 A 
ATOM     29  C   UNL     1      22.705  15.746  17.396  0.00  0.00    +0.013 A 
BRANCH  18  19
ATOM     19  C   UNL     1      21.797  15.880  21.164  0.00  0.00    +0.119 C 
BRANCH  19  20
ATOM     20  N   UNL     1      21.837  14.452  21.599  0.00  0.00    -0.302 NA
ATOM     21  C   UNL     1      20.891  14.182  22.773  0.00  0.00    +0.066 C 
ATOM     22  C   UNL     1      20.929  12.678  23.200  0.00  0.00    -0.064 C 
ATOM     23  N   UNL     1      22.363  12.289  23.560  0.00  0.00    +0.379 N 
ATOM     24  C   UNL     1      22.393  10.892  24.018  0.00  0.00    -0.096 C 
ATOM     25  H   UNL     1      22.684  12.932  24.413  0.00  0.00    -0.082 HD
ATOM     26  C   UNL     1      23.311  12.557  22.400  0.00  0.00    -0.064 C 
ATOM     27  C   UNL     1      23.244  14.048  21.964  0.00  0.00    +0.066 C 
ENDBRANCH  19  20
ENDBRANCH  18  19
ENDBRANCH  14  15
ENDBRANCH  12  13
TORSDOF 6
ENDMDL
MODEL 3
REMARK VINA RESULT:      -7.9     44.029     50.852
REMARK  Name = C:\Users\Docking\Desktop\test protocol\1iep_ligandH.pdb
REMARK  8 active torsions:
REMARK  status: ('A' for Active; 'I' for Inactive)
REMARK    1  A    between atoms: _5  and  _11
REMARK    2  A    between atoms: _19  and  _21
REMARK    3  A    between atoms: _22  and  _66
REMARK    4  A    between atoms: _27  and  _30
REMARK    5  A    between atoms: _32  and  _33
REMARK    6  A    between atoms: _38  and  _43
REMARK    7  A    between atoms: _43  and  _46
REMARK    8  A    between atoms: _53  and  _55
REMARK                            x       y       z     vdW  Elec       q    Type
REMARK                         _______ _______ _______ _____ _____    ______ ____
ROOT
ATOM     10  C   UNL     1      16.033   0.796  58.973  0.00  0.00    +0.038 A 
ATOM     11  C   UNL     1      15.470   1.961  58.394  0.00  0.00    +0.047 A 
ATOM     12  C   UNL     1      16.313   3.013  57.847  0.00  0.00    +0.035 A 
ATOM     32  C   UNL     1      17.727   2.843  57.904  0.00  0.00    +0.024 A 
ATOM     33  C   UNL     1      18.317   1.665  58.490  0.00  0.00    +0.007 A 
ATOM     34  C   UNL     1      17.490   0.626  59.033  0.00  0.00    -0.029 A 
ATOM     35  C   UNL     1      18.177  -0.613  59.655  0.00  0.00    +0.045 C 
ENDROOT
BRANCH  10   9
ATOM      4  C   UNL     1      12.933  -2.826  58.412  0.00  0.00    +0.077 A 
ATOM      5  C   UNL     1      13.006  -2.745  56.982  0.00  0.00    +0.048 A 
ATOM      6  C   UNL     1      13.848  -1.753  56.430  0.00  0.00    +0.116 A 
ATOM      7  N   UNL     1      14.559  -0.910  57.257  0.00  0.00    -0.223 NA
ATOM      8  C   UNL     1      14.464  -1.014  58.633  0.00  0.00    +0.220 A 
ATOM      9  N   UNL     1      15.177  -0.182  59.483  0.00  0.00    -0.283 N 
ATOM     36  H   UNL     1      15.074  -0.286  60.492  0.00  0.00    +0.155 HD
ATOM     37  N   UNL     1      13.667  -1.952  59.184  0.00  0.00    -0.214 NA
BRANCH   4   3
ATOM      1  C   UNL     1       9.953  -5.114  59.498  0.00  0.00    +0.020 A 
ATOM      2  C   UNL     1      10.723  -4.143  58.757  0.00  0.00    +0.013 A 
ATOM      3  C   UNL     1      12.091  -3.823  59.145  0.00  0.00    +0.019 A 
ATOM     38  C   UNL     1      12.655  -4.511  60.297  0.00  0.00    +0.120 A 
ATOM     39  N   UNL     1      11.888  -5.441  60.993  0.00  0.00    -0.263 NA
ATOM     40  C   UNL     1      10.570  -5.755  60.629  0.00  0.00    +0.111 A 
ENDBRANCH   4   3
ENDBRANCH  10   9
BRANCH  12  13
ATOM     13  N   UNL     1      15.798   4.222  57.254  0.00  0.00    -0.281 N 
ATOM     14  C   UNL     1      15.822   5.504  57.778  0.00  0.00    +0.248 C 
ATOM     30  O   UNL     1      16.102   5.773  58.937  0.00  0.00    -0.270 OA
ATOM     31  H   UNL     1      15.363   4.120  56.337  0.00  0.00    +0.155 HD
BRANCH  14  15
ATOM     15  C   UNL     1      15.471   6.654  56.889  0.00  0.00    +0.037 A 
ATOM     16  C   UNL     1      16.492   7.337  56.091  0.00  0.00    +0.013 A 
ATOM     17  C   UNL     1      16.129   8.454  55.255  0.00  0.00    +0.005 A 
ATOM     18  C   UNL     1      14.737   8.894  55.212  0.00  0.00    -0.033 A 
ATOM     28  C   UNL     1      13.743   8.195  56.010  0.00  0.00    +0.005 A 
ATOM     29  C   UNL     1      14.095   7.100  56.831  0.00  0.00    +0.013 A 
BRANCH  18  19
ATOM     19  C   UNL     1      14.263  10.089  54.365  0.00  0.00    +0.119 C 
BRANCH  19  20
ATOM     20  N   UNL     1      15.234  10.658  53.382  0.00  0.00    -0.302 NA
ATOM     21  C   UNL     1      15.109  12.180  53.267  0.00  0.00    +0.066 C 
ATOM     22  C   UNL     1      16.146  12.761  52.252  0.00  0.00    -0.064 C 
ATOM     23  N   UNL     1      15.949  12.097  50.889  0.00  0.00    +0.379 N 
ATOM     24  C   UNL     1      16.885  12.682  49.917  0.00  0.00    -0.096 C 
ATOM     25  H   UNL     1      14.915  12.330  50.545  0.00  0.00    -0.082 HD
ATOM     26  C   UNL     1      16.069  10.583  50.995  0.00  0.00    -0.064 C 
ATOM     27  C   UNL     1      15.054  10.019  52.027  0.00  0.00    +0.066 C 
ENDBRANCH  19  20
ENDBRANCH  18  19
ENDBRANCH  14  15
ENDBRANCH  12  13
TORSDOF 6
ENDMDL
MODEL 4
REMARK VINA RESULT:      -7.9      1.794      2.415
REMARK  Name = C:\Users\Docking\Desktop\test protocol\1iep_ligandH.pdb
REMARK  8 active torsions:
REMARK  status: ('A' for Active; 'I' for Inactive)
REMARK    1  A    between atoms: _5  and  _11
REMARK    2  A    between atoms: _19  and  _21
REMARK    3  A    between atoms: _22  and  _66
REMARK    4  A    between atoms: _27  and  _30
REMARK    5  A    between atoms: _32  and  _33
REMARK    6  A    between atoms: _38  and  _43
REMARK    7  A    between atoms: _43  and  _46
REMARK    8  A    between atoms: _53  and  _55
REMARK                            x       y       z     vdW  Elec       q    Type
REMARK                         _______ _______ _______ _____ _____    ______ ____
ROOT
ATOM     10  C   UNL     1      19.838  18.073   6.280  0.00  0.00    +0.038 A 
ATOM     11  C   UNL     1      20.285  17.752   7.588  0.00  0.00    +0.047 A 
ATOM     12  C   UNL     1      21.601  18.157   8.054  0.00  0.00    +0.035 A 
ATOM     32  C   UNL     1      22.437  18.891   7.163  0.00  0.00    +0.024 A 
ATOM     33  C   UNL     1      22.000  19.225   5.830  0.00  0.00    +0.007 A 
ATOM     34  C   UNL     1      20.703  18.825   5.364  0.00  0.00    -0.029 A 
ATOM     35  C   UNL     1      20.290  19.205   3.923  0.00  0.00    +0.045 C 
ENDROOT
BRANCH  10   9
ATOM      4  C   UNL     1      15.050  18.283   6.535  0.00  0.00    +0.077 A 
ATOM      5  C   UNL     1      15.090  19.284   7.562  0.00  0.00    +0.048 A 
ATOM      6  C   UNL     1      16.362  19.712   8.002  0.00  0.00    +0.116 A 
ATOM      7  N   UNL     1      17.504  19.173   7.449  0.00  0.00    -0.223 NA
ATOM      8  C   UNL     1      17.430  18.208   6.461  0.00  0.00    +0.220 A 
ATOM      9  N   UNL     1      18.565  17.658   5.885  0.00  0.00    -0.283 N 
ATOM     36  H   UNL     1      18.468  16.944   5.164  0.00  0.00    +0.155 HD
ATOM     37  N   UNL     1      16.227  17.782   6.025  0.00  0.00    -0.214 NA
BRANCH   4   3
ATOM      1  C   UNL     1      11.267  17.634   5.780  0.00  0.00    +0.020 A 
ATOM      2  C   UNL     1      12.461  18.201   6.364  0.00  0.00    +0.013 A 
ATOM      3  C   UNL     1      13.781  17.731   5.963  0.00  0.00    +0.019 A 
ATOM     38  C   UNL     1      13.859  16.679   4.960  0.00  0.00    +0.120 A 
ATOM     39  N   UNL     1      12.692  16.152   4.417  0.00  0.00    -0.263 NA
ATOM     40  C   UNL     1      11.416  16.595   4.796  0.00  0.00    +0.111 A 
ENDBRANCH   4   3
ENDBRANCH  10   9
BRANCH  12  13
ATOM     13  N   UNL     1      22.112  17.853   9.368  0.00  0.00    -0.281 N 
ATOM     14  C   UNL     1      22.785  16.714   9.778  0.00  0.00    +0.248 C 
ATOM     30  O   UNL     1      22.864  15.685   9.123  0.00  0.00    -0.270 OA
ATOM     31  H   UNL     1      21.958  18.564  10.083  0.00  0.00    +0.155 HD
BRANCH  14  15
ATOM     15  C   UNL     1      23.456  16.712  11.113  0.00  0.00    +0.037 A 
ATOM     16  C   UNL     1      23.758  17.964  11.813  0.00  0.00    +0.013 A 
ATOM     17  C   UNL     1      24.422  17.935  13.093  0.00  0.00    +0.005 A 
ATOM     18  C   UNL     1      24.786  16.648  13.681  0.00  0.00    -0.033 A 
ATOM     28  C   UNL     1      24.470  15.422  12.968  0.00  0.00    +0.005 A 
ATOM     29  C   UNL     1      23.821  15.447  11.713  0.00  0.00    +0.013 A 
BRANCH  18  19
ATOM     19  C   UNL     1      25.515  16.523  15.032  0.00  0.00    +0.119 C 
BRANCH  19  20
ATOM     20  N   UNL     1      26.957  16.908  15.069  0.00  0.00    -0.302 NA
ATOM     21  C   UNL     1      27.863  15.794  14.536  0.00  0.00    +0.066 C 
ATOM     22  C   UNL     1      29.366  16.222  14.561  0.00  0.00    -0.064 C 
ATOM     23  N   UNL     1      29.761  16.604  15.988  0.00  0.00    +0.379 N 
ATOM     24  C   UNL     1      31.189  16.951  16.026  0.00  0.00    -0.096 C 
ATOM     25  H   UNL     1      29.615  15.705  16.631  0.00  0.00    -0.082 HD
ATOM     26  C   UNL     1      28.864  17.709  16.528  0.00  0.00    -0.064 C 
ATOM     27  C   UNL     1      27.370  17.285  16.471  0.00  0.00    +0.066 C 
ENDBRANCH  19  20
ENDBRANCH  18  19
ENDBRANCH  14  15
ENDBRANCH  12  13
TORSDOF 6
ENDMDL
MODEL 5
REMARK VINA RESULT:      -7.9     18.664     23.218
REMARK  Name = C:\Users\Docking\Desktop\test protocol\1iep_ligandH.pdb
REMARK  8 active torsions:
REMARK  status: ('A' for Active; 'I' for Inactive)
REMARK    1  A    between atoms: _5  and  _11
REMARK    2  A    between atoms: _19  and  _21
REMARK    3  A    between atoms: _22  and  _66
REMARK    4  A    between atoms: _27  and  _30
REMARK    5  A    between atoms: _32  and  _33
REMARK    6  A    between atoms: _38  and  _43
REMARK    7  A    between atoms: _43  and  _46
REMARK    8  A    between atoms: _53  and  _55
REMARK                            x       y       z     vdW  Elec       q    Type
REMARK                         _______ _______ _______ _____ _____    ______ ____
ROOT
ATOM     10  C   UNL     1      11.699   9.297  23.604  0.00  0.00    +0.038 A 
ATOM     11  C   UNL     1      10.350   9.058  23.237  0.00  0.00    +0.047 A 
ATOM     12  C   UNL     1       9.789   7.716  23.266  0.00  0.00    +0.035 A 
ATOM     32  C   UNL     1      10.630   6.641  23.676  0.00  0.00    +0.024 A 
ATOM     33  C   UNL     1      12.004   6.866  24.051  0.00  0.00    +0.007 A 
ATOM     34  C   UNL     1      12.563   8.187  24.022  0.00  0.00    -0.029 A 
ATOM     35  C   UNL     1      14.044   8.369  24.429  0.00  0.00    +0.045 C 
ENDROOT
BRANCH  10   9
ATOM      4  C   UNL     1      12.333  13.648  25.530  0.00  0.00    +0.077 A 
ATOM      5  C   UNL     1      11.610  13.292  26.717  0.00  0.00    +0.048 A 
ATOM      6  C   UNL     1      11.085  11.982  26.790  0.00  0.00    +0.116 A 
ATOM      7  N   UNL     1      11.275  11.102  25.747  0.00  0.00    -0.223 NA
ATOM      8  C   UNL     1      11.975  11.477  24.615  0.00  0.00    +0.220 A 
ATOM      9  N   UNL     1      12.185  10.606  23.558  0.00  0.00    -0.283 N 
ATOM     36  H   UNL     1      12.701  10.923  22.737  0.00  0.00    +0.155 HD
ATOM     37  N   UNL     1      12.485  12.723  24.521  0.00  0.00    -0.214 NA
BRANCH   4   3
ATOM      1  C   UNL     1      12.810  17.463  24.812  0.00  0.00    +0.020 A 
ATOM      2  C   UNL     1      12.165  16.187  25.020  0.00  0.00    +0.013 A 
ATOM      3  C   UNL     1      12.950  14.993  25.306  0.00  0.00    +0.019 A 
ATOM     38  C   UNL     1      14.397  15.125  25.376  0.00  0.00    +0.120 A 
ATOM     39  N   UNL     1      14.991  16.367  25.170  0.00  0.00    -0.263 NA
ATOM     40  C   UNL     1      14.246  17.522  24.892  0.00  0.00    +0.111 A 
ENDBRANCH   4   3
ENDBRANCH  10   9
BRANCH  12  13
ATOM     13  N   UNL     1       8.429   7.411  22.897  0.00  0.00    -0.281 N 
ATOM     14  C   UNL     1       7.694   7.934  21.846  0.00  0.00    +0.248 C 
ATOM     30  O   UNL     1       8.026   8.909  21.187  0.00  0.00    -0.270 OA
ATOM     31  H   UNL     1       7.950   6.726  23.481  0.00  0.00    +0.155 HD
BRANCH  14  15
ATOM     15  C   UNL     1       6.394   7.291  21.483  0.00  0.00    +0.037 A 
ATOM     16  C   UNL     1       5.210   8.095  21.170  0.00  0.00    +0.013 A 
ATOM     17  C   UNL     1       3.964   7.449  20.840  0.00  0.00    +0.005 A 
ATOM     18  C   UNL     1       3.898   5.990  20.819  0.00  0.00    -0.033 A 
ATOM     28  C   UNL     1       5.089   5.217  21.128  0.00  0.00    +0.005 A 
ATOM     29  C   UNL     1       6.311   5.847  21.453  0.00  0.00    +0.013 A 
BRANCH  18  19
ATOM     19  C   UNL     1       2.605   5.216  20.498  0.00  0.00    +0.119 C 
BRANCH  19  20
ATOM     20  N   UNL     1       2.634   3.734  20.675  0.00  0.00    -0.302 NA
ATOM     21  C   UNL     1       2.659   2.995  19.334  0.00  0.00    +0.066 C 
ATOM     22  C   UNL     1       2.711   1.446  19.538  0.00  0.00    -0.064 C 
ATOM     23  N   UNL     1       1.511   1.004  20.378  0.00  0.00    +0.379 N 
ATOM     24  C   UNL     1       1.526  -0.459  20.523  0.00  0.00    -0.096 C 
ATOM     25  H   UNL     1       0.587   1.279  19.818  0.00  0.00    -0.082 HD
ATOM     26  C   UNL     1       1.477   1.736  21.712  0.00  0.00    -0.064 C 
ATOM     27  C   UNL     1       1.455   3.275  21.498  0.00  0.00    +0.066 C 
ENDBRANCH  19  20
ENDBRANCH  18  19
ENDBRANCH  14  15
ENDBRANCH  12  13
TORSDOF 6
ENDMDL
