MODEL 1
REMARK VINA RESULT:      -8.4      0.000      0.000
REMARK  Name = C:\Users\Docking\Desktop\test protocol\1iep_ligandH.pdb
REMARK  8 active torsions:
REMARK  status: ('A' for Active; 'I' for Inactive)
REMARK    1  A    between atoms: _5  and  _11
REMARK    2  A    between atoms: _19  and  _21
REMARK    3  A    between atoms: _22  and  _66
REMARK    4  A    between atoms: _27  and  _30
REMARK    5  A    between atoms: _32  and  _33
REMARK    6  A    between atoms: _38  and  _43
REMARK    7  A    between atoms: _43  and  _46
REMARK    8  A    between atoms: _53  and  _55
REMARK                            x       y       z     vdW  Elec       q    Type
REMARK                         _______ _______ _______ _____ _____    ______ ____
ROOT
ATOM     10  C   UNL     1       9.272 -39.040  -8.561  0.00  0.00    +0.038 A 
ATOM     11  C   UNL     1       9.557 -38.403  -7.326  0.00  0.00    +0.047 A 
ATOM     12  C   UNL     1       8.652 -38.518  -6.193  0.00  0.00    +0.035 A 
ATOM     32  C   UNL     1       7.465 -39.292  -6.352  0.00  0.00    +0.024 A 
ATOM     33  C   UNL     1       7.159 -39.945  -7.600  0.00  0.00    +0.007 A 
ATOM     34  C   UNL     1       8.047 -39.833  -8.722  0.00  0.00    -0.029 A 
ATOM     35  C   UNL     1       7.665 -40.550 -10.038  0.00  0.00    +0.045 C 
ENDROOT
BRANCH  10   9
ATOM      4  C   UNL     1      13.151 -40.420 -11.028  0.00  0.00    +0.077 A 
ATOM      5  C   UNL     1      13.414 -41.502 -10.124  0.00  0.00    +0.048 A 
ATOM      6  C   UNL     1      12.531 -41.665  -9.032  0.00  0.00    +0.116 A 
ATOM      7  N   UNL     1      11.468 -40.804  -8.868  0.00  0.00    -0.223 NA
ATOM      8  C   UNL     1      11.244 -39.769  -9.757  0.00  0.00    +0.220 A 
ATOM      9  N   UNL     1      10.176 -38.896  -9.616  0.00  0.00    -0.283 N 
ATOM     36  H   UNL     1      10.049 -38.141 -10.289  0.00  0.00    +0.155 HD
ATOM     37  N   UNL     1      12.073 -39.592 -10.807  0.00  0.00    -0.214 NA
BRANCH   4   3
ATOM      1  C   UNL     1      14.818 -40.618 -14.561  0.00  0.00    +0.020 A 
ATOM      2  C   UNL     1      13.987 -40.952 -13.427  0.00  0.00    +0.013 A 
ATOM      3  C   UNL     1      13.991 -40.120 -12.230  0.00  0.00    +0.019 A 
ATOM     38  C   UNL     1      14.853 -38.948 -12.213  0.00  0.00    +0.120 A 
ATOM     39  N   UNL     1      15.643 -38.652 -13.319  0.00  0.00    -0.263 NA
ATOM     40  C   UNL     1      15.649 -39.446 -14.476  0.00  0.00    +0.111 A 
ENDBRANCH   4   3
ENDBRANCH  10   9
BRANCH  12  13
ATOM     13  N   UNL     1       8.885 -37.887  -4.918  0.00  0.00    -0.281 N 
ATOM     14  C   UNL     1       8.162 -36.862  -4.330  0.00  0.00    +0.248 C 
ATOM     30  O   UNL     1       7.327 -36.184  -4.910  0.00  0.00    -0.270 OA
ATOM     31  H   UNL     1       9.680 -38.238  -4.384  0.00  0.00    +0.155 HD
BRANCH  14  15
ATOM     15  C   UNL     1       8.412 -36.534  -2.893  0.00  0.00    +0.037 A 
ATOM     16  C   UNL     1       9.367 -35.493  -2.507  0.00  0.00    +0.013 A 
ATOM     17  C   UNL     1       9.602 -35.208  -1.113  0.00  0.00    +0.005 A 
ATOM     18  C   UNL     1       8.878 -35.966  -0.096  0.00  0.00    -0.033 A 
ATOM     28  C   UNL     1       7.932 -36.989  -0.507  0.00  0.00    +0.005 A 
ATOM     29  C   UNL     1       7.700 -37.272  -1.872  0.00  0.00    +0.013 A 
BRANCH  18  19
ATOM     19  C   UNL     1       9.082 -35.743   1.415  0.00  0.00    +0.119 C 
BRANCH  19  20
ATOM     20  N   UNL     1      10.442 -35.326   1.868  0.00  0.00    -0.302 NA
ATOM     21  C   UNL     1      11.213 -36.482   2.512  0.00  0.00    +0.066 C 
ATOM     22  C   UNL     1      12.642 -36.034   2.959  0.00  0.00    -0.064 C 
ATOM     23  N   UNL     1      12.525 -34.856   3.927  0.00  0.00    +0.379 N 
ATOM     24  C   UNL     1      13.864 -34.469   4.394  0.00  0.00    -0.096 C 
ATOM     25  H   UNL     1      11.944 -35.203   4.813  0.00  0.00    -0.082 HD
ATOM     26  C   UNL     1      11.757 -33.703   3.296  0.00  0.00    -0.064 C 
ATOM     27  C   UNL     1      10.349 -34.166   2.828  0.00  0.00    +0.066 C 
ENDBRANCH  19  20
ENDBRANCH  18  19
ENDBRANCH  14  15
ENDBRANCH  12  13
TORSDOF 6
ENDMDL
MODEL 2
REMARK VINA RESULT:      -8.4      1.654      2.486
REMARK  Name = C:\Users\Docking\Desktop\test protocol\1iep_ligandH.pdb
REMARK  8 active torsions:
REMARK  status: ('A' for Active; 'I' for Inactive)
REMARK    1  A    between atoms: _5  and  _11
REMARK    2  A    between atoms: _19  and  _21
REMARK    3  A    between atoms: _22  and  _66
REMARK    4  A    between atoms: _27  and  _30
REMARK    5  A    between atoms: _32  and  _33
REMARK    6  A    between atoms: _38  and  _43
REMARK    7  A    between atoms: _43  and  _46
REMARK    8  A    between atoms: _53  and  _55
REMARK                            x       y       z     vdW  Elec       q    Type
REMARK                         _______ _______ _______ _____ _____    ______ ____
ROOT
ATOM     10  C   UNL     1       9.215 -39.110  -8.611  0.00  0.00    +0.038 A 
ATOM     11  C   UNL     1       9.538 -38.450  -7.398  0.00  0.00    +0.047 A 
ATOM     12  C   UNL     1       8.669 -38.545  -6.235  0.00  0.00    +0.035 A 
ATOM     32  C   UNL     1       7.480 -39.323  -6.342  0.00  0.00    +0.024 A 
ATOM     33  C   UNL     1       7.136 -40.000  -7.567  0.00  0.00    +0.007 A 
ATOM     34  C   UNL     1       7.988 -39.908  -8.718  0.00  0.00    -0.029 A 
ATOM     35  C   UNL     1       7.566 -40.649 -10.008  0.00  0.00    +0.045 C 
ENDROOT
BRANCH  10   9
ATOM      4  C   UNL     1      13.065 -40.478 -11.129  0.00  0.00    +0.077 A 
ATOM      5  C   UNL     1      13.385 -41.513 -10.189  0.00  0.00    +0.048 A 
ATOM      6  C   UNL     1      12.538 -41.656  -9.067  0.00  0.00    +0.116 A 
ATOM      7  N   UNL     1      11.454 -40.820  -8.907  0.00  0.00    -0.223 NA
ATOM      8  C   UNL     1      11.174 -39.831  -9.832  0.00  0.00    +0.220 A 
ATOM      9  N   UNL     1      10.085 -38.984  -9.696  0.00  0.00    -0.283 N 
ATOM     36  H   UNL     1       9.917 -38.262 -10.396  0.00  0.00    +0.155 HD
ATOM     37  N   UNL     1      11.969 -39.673 -10.911  0.00  0.00    -0.214 NA
BRANCH   4   3
ATOM      1  C   UNL     1      15.607 -38.926 -13.665  0.00  0.00    +0.020 A 
ATOM      2  C   UNL     1      14.863 -39.148 -12.446  0.00  0.00    +0.013 A 
ATOM      3  C   UNL     1      13.863 -40.205 -12.366  0.00  0.00    +0.019 A 
ATOM     38  C   UNL     1      13.637 -41.026 -13.546  0.00  0.00    +0.120 A 
ATOM     39  N   UNL     1      14.367 -40.788 -14.706  0.00  0.00    -0.263 NA
ATOM     40  C   UNL     1      15.332 -39.773 -14.796  0.00  0.00    +0.111 A 
ENDBRANCH   4   3
ENDBRANCH  10   9
BRANCH  12  13
ATOM     13  N   UNL     1       8.941 -37.890  -4.979  0.00  0.00    -0.281 N 
ATOM     14  C   UNL     1       8.202 -36.895  -4.360  0.00  0.00    +0.248 C 
ATOM     30  O   UNL     1       7.305 -36.264  -4.899  0.00  0.00    -0.270 OA
ATOM     31  H   UNL     1       9.780 -38.197  -4.487  0.00  0.00    +0.155 HD
BRANCH  14  15
ATOM     15  C   UNL     1       8.514 -36.540  -2.942  0.00  0.00    +0.037 A 
ATOM     16  C   UNL     1       7.814 -37.181  -1.826  0.00  0.00    +0.013 A 
ATOM     17  C   UNL     1       8.122 -36.808  -0.469  0.00  0.00    +0.005 A 
ATOM     18  C   UNL     1       9.138 -35.788  -0.220  0.00  0.00    -0.033 A 
ATOM     28  C   UNL     1       9.821 -35.171  -1.345  0.00  0.00    +0.005 A 
ATOM     29  C   UNL     1       9.521 -35.534  -2.677  0.00  0.00    +0.013 A 
BRANCH  18  19
ATOM     19  C   UNL     1       9.517 -35.312   1.196  0.00  0.00    +0.119 C 
BRANCH  19  20
ATOM     20  N   UNL     1       8.468 -34.592   1.978  0.00  0.00    -0.302 NA
ATOM     21  C   UNL     1       8.611 -33.072   1.867  0.00  0.00    +0.066 C 
ATOM     22  C   UNL     1       7.493 -32.334   2.673  0.00  0.00    -0.064 C 
ATOM     23  N   UNL     1       7.546 -32.778   4.136  0.00  0.00    +0.379 N 
ATOM     24  C   UNL     1       6.534 -32.043   4.908  0.00  0.00    -0.096 C 
ATOM     25  H   UNL     1       8.547 -32.497   4.538  0.00  0.00    -0.082 HD
ATOM     26  C   UNL     1       7.407 -34.289   4.256  0.00  0.00    -0.064 C 
ATOM     27  C   UNL     1       8.505 -35.012   3.427  0.00  0.00    +0.066 C 
ENDBRANCH  19  20
ENDBRANCH  18  19
ENDBRANCH  14  15
ENDBRANCH  12  13
TORSDOF 6
ENDMDL
MODEL 3
REMARK VINA RESULT:      -8.2      1.961      2.868
REMARK  Name = C:\Users\Docking\Desktop\test protocol\1iep_ligandH.pdb
REMARK  8 active torsions:
REMARK  status: ('A' for Active; 'I' for Inactive)
REMARK    1  A    between atoms: _5  and  _11
REMARK    2  A    between atoms: _19  and  _21
REMARK    3  A    between atoms: _22  and  _66
REMARK    4  A    between atoms: _27  and  _30
REMARK    5  A    between atoms: _32  and  _33
REMARK    6  A    between atoms: _38  and  _43
REMARK    7  A    between atoms: _43  and  _46
REMARK    8  A    between atoms: _53  and  _55
REMARK                            x       y       z     vdW  Elec       q    Type
REMARK                         _______ _______ _______ _____ _____    ______ ____
ROOT
ATOM     10  C   UNL     1       9.205 -39.492  -7.876  0.00  0.00    +0.038 A 
ATOM     11  C   UNL     1       9.395 -38.632  -6.765  0.00  0.00    +0.047 A 
ATOM     12  C   UNL     1       8.314 -38.358  -5.831  0.00  0.00    +0.035 A 
ATOM     32  C   UNL     1       7.051 -38.981  -6.058  0.00  0.00    +0.024 A 
ATOM     33  C   UNL     1       6.840 -39.857  -7.183  0.00  0.00    +0.007 A 
ATOM     34  C   UNL     1       7.903 -40.129  -8.109  0.00  0.00    -0.029 A 
ATOM     35  C   UNL     1       7.618 -41.072  -9.301  0.00  0.00    +0.045 C 
ENDROOT
BRANCH  10   9
ATOM      4  C   UNL     1      12.025 -38.224 -11.547  0.00  0.00    +0.077 A 
ATOM      5  C   UNL     1      11.282 -37.019 -11.779  0.00  0.00    +0.048 A 
ATOM      6  C   UNL     1      10.177 -36.766 -10.936  0.00  0.00    +0.116 A 
ATOM      7  N   UNL     1       9.848 -37.659  -9.938  0.00  0.00    -0.223 NA
ATOM      8  C   UNL     1      10.585 -38.813  -9.743  0.00  0.00    +0.220 A 
ATOM      9  N   UNL     1      10.278 -39.720  -8.741  0.00  0.00    -0.283 N 
ATOM     36  H   UNL     1      10.841 -40.563  -8.634  0.00  0.00    +0.155 HD
ATOM     37  N   UNL     1      11.644 -39.078 -10.536  0.00  0.00    -0.214 NA
BRANCH   4   3
ATOM      1  C   UNL     1      14.570 -40.313 -13.660  0.00  0.00    +0.020 A 
ATOM      2  C   UNL     1      13.396 -39.973 -12.888  0.00  0.00    +0.013 A 
ATOM      3  C   UNL     1      13.221 -38.629 -12.352  0.00  0.00    +0.019 A 
ATOM     38  C   UNL     1      14.259 -37.644 -12.617  0.00  0.00    +0.120 A 
ATOM     39  N   UNL     1      15.379 -38.001 -13.362  0.00  0.00    -0.263 NA
ATOM     40  C   UNL     1      15.559 -39.291 -13.882  0.00  0.00    +0.111 A 
ENDBRANCH   4   3
ENDBRANCH  10   9
BRANCH  12  13
ATOM     13  N   UNL     1       8.445 -37.487  -4.690  0.00  0.00    -0.281 N 
ATOM     14  C   UNL     1       8.355 -37.821  -3.349  0.00  0.00    +0.248 C 
ATOM     30  O   UNL     1       7.932 -38.888  -2.929  0.00  0.00    -0.270 OA
ATOM     31  H   UNL     1       8.627 -36.505  -4.896  0.00  0.00    +0.155 HD
BRANCH  14  15
ATOM     15  C   UNL     1       8.782 -36.819  -2.325  0.00  0.00    +0.037 A 
ATOM     16  C   UNL     1       8.419 -36.973  -0.914  0.00  0.00    +0.013 A 
ATOM     17  C   UNL     1       8.829 -35.983   0.050  0.00  0.00    +0.005 A 
ATOM     18  C   UNL     1       9.609 -34.831  -0.394  0.00  0.00    -0.033 A 
ATOM     28  C   UNL     1       9.960 -34.706  -1.799  0.00  0.00    +0.005 A 
ATOM     29  C   UNL     1       9.559 -35.673  -2.747  0.00  0.00    +0.013 A 
BRANCH  18  19
ATOM     19  C   UNL     1      10.072 -33.715   0.562  0.00  0.00    +0.119 C 
BRANCH  19  20
ATOM     20  N   UNL     1       9.223 -33.446   1.760  0.00  0.00    -0.302 NA
ATOM     21  C   UNL     1       8.385 -32.175   1.597  0.00  0.00    +0.066 C 
ATOM     22  C   UNL     1       7.486 -31.921   2.851  0.00  0.00    -0.064 C 
ATOM     23  N   UNL     1       8.367 -31.831   4.097  0.00  0.00    +0.379 N 
ATOM     24  C   UNL     1       7.531 -31.535   5.270  0.00  0.00    -0.096 C 
ATOM     25  H   UNL     1       9.067 -30.975   3.956  0.00  0.00    -0.082 HD
ATOM     26  C   UNL     1       9.206 -33.090   4.266  0.00  0.00    -0.064 C 
ATOM     27  C   UNL     1      10.074 -33.350   3.003  0.00  0.00    +0.066 C 
ENDBRANCH  19  20
ENDBRANCH  18  19
ENDBRANCH  14  15
ENDBRANCH  12  13
TORSDOF 6
ENDMDL
MODEL 4
REMARK VINA RESULT:      -8.2      4.444     13.214
REMARK  Name = C:\Users\Docking\Desktop\test protocol\1iep_ligandH.pdb
REMARK  8 active torsions:
REMARK  status: ('A' for Active; 'I' for Inactive)
REMARK    1  A    between atoms: _5  and  _11
REMARK    2  A    between atoms: _19  and  _21
REMARK    3  A    between atoms: _22  and  _66
REMARK    4  A    between atoms: _27  and  _30
REMARK    5  A    between atoms: _32  and  _33
REMARK    6  A    between atoms: _38  and  _43
REMARK    7  A    between atoms: _43  and  _46
REMARK    8  A    between atoms: _53  and  _55
REMARK                            x       y       z     vdW  Elec       q    Type
REMARK                         _______ _______ _______ _____ _____    ______ ____
ROOT
ATOM     10  C   UNL     1      11.703 -40.747  -8.487  0.00  0.00    +0.038 A 
ATOM     11  C   UNL     1      12.071 -39.839  -9.513  0.00  0.00    +0.047 A 
ATOM     12  C   UNL     1      12.564 -40.314 -10.797  0.00  0.00    +0.035 A 
ATOM     32  C   UNL     1      12.666 -41.721 -11.003  0.00  0.00    +0.024 A 
ATOM     33  C   UNL     1      12.296 -42.658  -9.971  0.00  0.00    +0.007 A 
ATOM     34  C   UNL     1      11.812 -42.195  -8.702  0.00  0.00    -0.029 A 
ATOM     35  C   UNL     1      11.437 -43.245  -7.630  0.00  0.00    +0.045 C 
ENDROOT
BRANCH  10   9
ATOM      4  C   UNL     1       8.192 -39.106  -5.656  0.00  0.00    +0.077 A 
ATOM      5  C   UNL     1       7.208 -39.253  -6.690  0.00  0.00    +0.048 A 
ATOM      6  C   UNL     1       7.649 -39.748  -7.938  0.00  0.00    +0.116 A 
ATOM      7  N   UNL     1       8.976 -40.069  -8.127  0.00  0.00    -0.223 NA
ATOM      8  C   UNL     1       9.898 -39.913  -7.109  0.00  0.00    +0.220 A 
ATOM      9  N   UNL     1      11.236 -40.236  -7.274  0.00  0.00    -0.283 N 
ATOM     36  H   UNL     1      11.887 -40.100  -6.501  0.00  0.00    +0.155 HD
ATOM     37  N   UNL     1       9.503 -39.441  -5.908  0.00  0.00    -0.214 NA
BRANCH   4   3
ATOM      1  C   UNL     1       7.399 -36.748  -2.638  0.00  0.00    +0.020 A 
ATOM      2  C   UNL     1       7.698 -37.185  -3.982  0.00  0.00    +0.013 A 
ATOM      3  C   UNL     1       7.881 -38.599  -4.282  0.00  0.00    +0.019 A 
ATOM     38  C   UNL     1       7.753 -39.553  -3.190  0.00  0.00    +0.120 A 
ATOM     39  N   UNL     1       7.466 -39.103  -1.906  0.00  0.00    -0.263 NA
ATOM     40  C   UNL     1       7.289 -37.744  -1.605  0.00  0.00    +0.111 A 
ENDBRANCH   4   3
ENDBRANCH  10   9
BRANCH  12  13
ATOM     13  N   UNL     1      12.961 -39.440 -11.872  0.00  0.00    -0.281 N 
ATOM     14  C   UNL     1      12.232 -38.410 -12.445  0.00  0.00    +0.248 C 
ATOM     30  O   UNL     1      11.039 -38.221 -12.261  0.00  0.00    -0.270 OA
ATOM     31  H   UNL     1      13.891 -39.599 -12.258  0.00  0.00    +0.155 HD
BRANCH  14  15
ATOM     15  C   UNL     1      12.927 -37.460 -13.367  0.00  0.00    +0.037 A 
ATOM     16  C   UNL     1      14.359 -37.180 -13.232  0.00  0.00    +0.013 A 
ATOM     17  C   UNL     1      15.000 -36.247 -14.123  0.00  0.00    +0.005 A 
ATOM     18  C   UNL     1      14.210 -35.588 -15.161  0.00  0.00    -0.033 A 
ATOM     28  C   UNL     1      12.793 -35.889 -15.277  0.00  0.00    +0.005 A 
ATOM     29  C   UNL     1      12.160 -36.802 -14.404  0.00  0.00    +0.013 A 
BRANCH  18  19
ATOM     19  C   UNL     1      14.807 -34.563 -16.143  0.00  0.00    +0.119 C 
BRANCH  19  20
ATOM     20  N   UNL     1      13.857 -33.847 -17.045  0.00  0.00    -0.302 NA
ATOM     21  C   UNL     1      14.243 -33.994 -18.520  0.00  0.00    +0.066 C 
ATOM     22  C   UNL     1      13.226 -33.257 -19.451  0.00  0.00    -0.064 C 
ATOM     23  N   UNL     1      13.153 -31.782 -19.055  0.00  0.00    +0.379 N 
ATOM     24  C   UNL     1      12.241 -31.074 -19.965  0.00  0.00    -0.096 C 
ATOM     25  H   UNL     1      14.170 -31.345 -19.188  0.00  0.00    -0.082 HD
ATOM     26  C   UNL     1      12.772 -31.626 -17.589  0.00  0.00    -0.064 C 
ATOM     27  C   UNL     1      13.772 -32.386 -16.675  0.00  0.00    +0.066 C 
ENDBRANCH  19  20
ENDBRANCH  18  19
ENDBRANCH  14  15
ENDBRANCH  12  13
TORSDOF 6
ENDMDL
MODEL 5
REMARK VINA RESULT:      -8.2     11.376     14.412
REMARK  Name = C:\Users\Docking\Desktop\test protocol\1iep_ligandH.pdb
REMARK  8 active torsions:
REMARK  status: ('A' for Active; 'I' for Inactive)
REMARK    1  A    between atoms: _5  and  _11
REMARK    2  A    between atoms: _19  and  _21
REMARK    3  A    between atoms: _22  and  _66
REMARK    4  A    between atoms: _27  and  _30
REMARK    5  A    between atoms: _32  and  _33
REMARK    6  A    between atoms: _38  and  _43
REMARK    7  A    between atoms: _43  and  _46
REMARK    8  A    between atoms: _53  and  _55
REMARK                            x       y       z     vdW  Elec       q    Type
REMARK                         _______ _______ _______ _____ _____    ______ ____
ROOT
ATOM     10  C   UNL     1      21.045 -37.463  -1.553  0.00  0.00    +0.038 A 
ATOM     11  C   UNL     1      21.326 -36.350  -0.719  0.00  0.00    +0.047 A 
ATOM     12  C   UNL     1      20.255 -35.583  -0.102  0.00  0.00    +0.035 A 
ATOM     32  C   UNL     1      18.909 -35.979  -0.354  0.00  0.00    +0.024 A 
ATOM     33  C   UNL     1      18.606 -37.107  -1.200  0.00  0.00    +0.007 A 
ATOM     34  C   UNL     1      19.658 -37.866  -1.813  0.00  0.00    -0.029 A 
ATOM     35  C   UNL     1      19.274 -39.061  -2.716  0.00  0.00    +0.045 C 
ENDROOT
BRANCH  10   9
ATOM      4  C   UNL     1      24.656 -40.615  -1.289  0.00  0.00    +0.077 A 
ATOM      5  C   UNL     1      24.412 -40.867   0.102  0.00  0.00    +0.048 A 
ATOM      6  C   UNL     1      23.353 -40.160   0.714  0.00  0.00    +0.116 A 
ATOM      7  N   UNL     1      22.600 -39.270  -0.020  0.00  0.00    -0.223 NA
ATOM      8  C   UNL     1      22.862 -39.048  -1.360  0.00  0.00    +0.220 A 
ATOM      9  N   UNL     1      22.113 -38.163  -2.119  0.00  0.00    -0.283 N 
ATOM     36  H   UNL     1      22.343 -38.023  -3.103  0.00  0.00    +0.155 HD
ATOM     37  N   UNL     1      23.869 -39.710  -1.967  0.00  0.00    -0.214 NA
BRANCH   4   3
ATOM      1  C   UNL     1      26.998 -41.730  -4.217  0.00  0.00    +0.020 A 
ATOM      2  C   UNL     1      25.938 -41.056  -3.502  0.00  0.00    +0.013 A 
ATOM      3  C   UNL     1      25.737 -41.286  -2.077  0.00  0.00    +0.019 A 
ATOM     38  C   UNL     1      26.633 -42.211  -1.399  0.00  0.00    +0.120 A 
ATOM     39  N   UNL     1      27.643 -42.847  -2.114  0.00  0.00    -0.263 NA
ATOM     40  C   UNL     1      27.845 -42.635  -3.486  0.00  0.00    +0.111 A 
ENDBRANCH   4   3
ENDBRANCH  10   9
BRANCH  12  13
ATOM     13  N   UNL     1      20.478 -34.440   0.747  0.00  0.00    -0.281 N 
ATOM     14  C   UNL     1      21.219 -34.379   1.916  0.00  0.00    +0.248 C 
ATOM     30  O   UNL     1      21.628 -35.355   2.527  0.00  0.00    -0.270 OA
ATOM     31  H   UNL     1      20.037 -33.569   0.450  0.00  0.00    +0.155 HD
BRANCH  14  15
ATOM     15  C   UNL     1      21.539 -33.040   2.499  0.00  0.00    +0.037 A 
ATOM     16  C   UNL     1      20.938 -31.815   1.965  0.00  0.00    +0.013 A 
ATOM     17  C   UNL     1      21.277 -30.535   2.535  0.00  0.00    +0.005 A 
ATOM     18  C   UNL     1      22.221 -30.474   3.648  0.00  0.00    -0.033 A 
ATOM     28  C   UNL     1      22.798 -31.706   4.162  0.00  0.00    +0.005 A 
ATOM     29  C   UNL     1      22.469 -32.962   3.605  0.00  0.00    +0.013 A 
BRANCH  18  19
ATOM     19  C   UNL     1      22.656 -29.151   4.304  0.00  0.00    +0.119 C 
BRANCH  19  20
ATOM     20  N   UNL     1      21.631 -28.411   5.098  0.00  0.00    -0.302 NA
ATOM     21  C   UNL     1      21.944 -26.915   5.191  0.00  0.00    +0.066 C 
ATOM     22  C   UNL     1      20.849 -26.154   6.006  0.00  0.00    -0.064 C 
ATOM     23  N   UNL     1      20.734 -26.771   7.401  0.00  0.00    +0.379 N 
ATOM     24  C   UNL     1      19.746 -26.020   8.190  0.00  0.00    -0.096 C 
ATOM     25  H   UNL     1      21.723 -26.659   7.903  0.00  0.00    -0.082 HD
ATOM     26  C   UNL     1      20.425 -28.259   7.318  0.00  0.00    -0.064 C 
ATOM     27  C   UNL     1      21.504 -29.001   6.481  0.00  0.00    +0.066 C 
ENDBRANCH  19  20
ENDBRANCH  18  19
ENDBRANCH  14  15
ENDBRANCH  12  13
TORSDOF 6
ENDMDL
