MODEL 1
REMARK VINA RESULT:     -10.1      0.000      0.000
REMARK  Name = C:\Users\Docking\Desktop\test protocol\1iep_ligandH.pdb
REMARK  8 active torsions:
REMARK  status: ('A' for Active; 'I' for Inactive)
REMARK    1  A    between atoms: _5  and  _11
REMARK    2  A    between atoms: _19  and  _21
REMARK    3  A    between atoms: _22  and  _66
REMARK    4  A    between atoms: _27  and  _30
REMARK    5  A    between atoms: _32  and  _33
REMARK    6  A    between atoms: _38  and  _43
REMARK    7  A    between atoms: _43  and  _46
REMARK    8  A    between atoms: _53  and  _55
REMARK                            x       y       z     vdW  Elec       q    Type
REMARK                         _______ _______ _______ _____ _____    ______ ____
ROOT
ATOM     10  C   UNL     1      -7.489 -10.155   3.302  0.00  0.00    +0.038 A 
ATOM     11  C   UNL     1      -7.045 -10.518   4.599  0.00  0.00    +0.047 A 
ATOM     12  C   UNL     1      -7.670 -11.609   5.331  0.00  0.00    +0.035 A 
ATOM     32  C   UNL     1      -8.744 -12.310   4.709  0.00  0.00    +0.024 A 
ATOM     33  C   UNL     1      -9.209 -11.953   3.392  0.00  0.00    +0.007 A 
ATOM     34  C   UNL     1      -8.598 -10.877   2.667  0.00  0.00    -0.029 A 
ATOM     35  C   UNL     1      -9.142 -10.533   1.261  0.00  0.00    +0.045 C 
ENDROOT
BRANCH  10   9
ATOM      4  C   UNL     1      -6.452  -5.496   2.793  0.00  0.00    +0.077 A 
ATOM      5  C   UNL     1      -7.269  -5.131   3.914  0.00  0.00    +0.048 A 
ATOM      6  C   UNL     1      -7.945  -6.171   4.590  0.00  0.00    +0.116 A 
ATOM      7  N   UNL     1      -7.807  -7.476   4.169  0.00  0.00    -0.223 NA
ATOM      8  C   UNL     1      -7.012  -7.793   3.083  0.00  0.00    +0.220 A 
ATOM      9  N   UNL     1      -6.852  -9.099   2.646  0.00  0.00    -0.283 N 
ATOM     36  H   UNL     1      -6.263  -9.291   1.836  0.00  0.00    +0.155 HD
ATOM     37  N   UNL     1      -6.357  -6.818   2.419  0.00  0.00    -0.214 NA
BRANCH   4   3
ATOM      1  C   UNL     1      -4.982  -2.162   1.371  0.00  0.00    +0.020 A 
ATOM      2  C   UNL     1      -5.757  -3.070   2.184  0.00  0.00    +0.013 A 
ATOM      3  C   UNL     1      -5.672  -4.511   1.979  0.00  0.00    +0.019 A 
ATOM     38  C   UNL     1      -4.786  -5.003   0.935  0.00  0.00    +0.120 A 
ATOM     39  N   UNL     1      -4.053  -4.105   0.166  0.00  0.00    -0.263 NA
ATOM     40  C   UNL     1      -4.128  -2.716   0.353  0.00  0.00    +0.111 A 
ENDBRANCH   4   3
ENDBRANCH  10   9
BRANCH  12  13
ATOM     13  N   UNL     1      -7.267 -12.018   6.653  0.00  0.00    -0.281 N 
ATOM     14  C   UNL     1      -7.476 -11.354   7.851  0.00  0.00    +0.248 C 
ATOM     30  O   UNL     1      -7.857 -10.196   7.942  0.00  0.00    -0.270 OA
ATOM     31  H   UNL     1      -6.767 -12.905   6.714  0.00  0.00    +0.155 HD
BRANCH  14  15
ATOM     15  C   UNL     1      -7.211 -12.075   9.133  0.00  0.00    +0.037 A 
ATOM     16  C   UNL     1      -6.447 -11.447  10.214  0.00  0.00    +0.013 A 
ATOM     17  C   UNL     1      -6.190 -12.172  11.433  0.00  0.00    +0.005 A 
ATOM     18  C   UNL     1      -6.700 -13.533  11.578  0.00  0.00    -0.033 A 
ATOM     28  C   UNL     1      -7.459 -14.130  10.492  0.00  0.00    +0.005 A 
ATOM     29  C   UNL     1      -7.712 -13.423   9.295  0.00  0.00    +0.013 A 
BRANCH  18  19
ATOM     19  C   UNL     1      -6.456 -14.388  12.836  0.00  0.00    +0.119 C 
BRANCH  19  20
ATOM     20  N   UNL     1      -5.626 -15.619  12.676  0.00  0.00    -0.302 NA
ATOM     21  C   UNL     1      -6.094 -16.752  13.593  0.00  0.00    +0.066 C 
ATOM     22  C   UNL     1      -5.229 -18.039  13.396  0.00  0.00    -0.064 C 
ATOM     23  N   UNL     1      -3.758 -17.706  13.654  0.00  0.00    +0.379 N 
ATOM     24  C   UNL     1      -2.950 -18.927  13.526  0.00  0.00    -0.096 C 
ATOM     25  H   UNL     1      -3.672 -17.351  14.707  0.00  0.00    -0.082 HD
ATOM     26  C   UNL     1      -3.285 -16.579  12.747  0.00  0.00    -0.064 C 
ATOM     27  C   UNL     1      -4.170 -15.314  12.930  0.00  0.00    +0.066 C 
ENDBRANCH  19  20
ENDBRANCH  18  19
ENDBRANCH  14  15
ENDBRANCH  12  13
TORSDOF 6
ENDMDL
MODEL 2
REMARK VINA RESULT:      -9.9      2.206     13.242
REMARK  Name = C:\Users\Docking\Desktop\test protocol\1iep_ligandH.pdb
REMARK  8 active torsions:
REMARK  status: ('A' for Active; 'I' for Inactive)
REMARK    1  A    between atoms: _5  and  _11
REMARK    2  A    between atoms: _19  and  _21
REMARK    3  A    between atoms: _22  and  _66
REMARK    4  A    between atoms: _27  and  _30
REMARK    5  A    between atoms: _32  and  _33
REMARK    6  A    between atoms: _38  and  _43
REMARK    7  A    between atoms: _43  and  _46
REMARK    8  A    between atoms: _53  and  _55
REMARK                            x       y       z     vdW  Elec       q    Type
REMARK                         _______ _______ _______ _____ _____    ______ ____
ROOT
ATOM     10  C   UNL     1      -7.510 -11.097   4.956  0.00  0.00    +0.038 A 
ATOM     11  C   UNL     1      -7.009  -9.892   4.401  0.00  0.00    +0.047 A 
ATOM     12  C   UNL     1      -7.583  -9.325   3.191  0.00  0.00    +0.035 A 
ATOM     32  C   UNL     1      -8.669 -10.010   2.573  0.00  0.00    +0.024 A 
ATOM     33  C   UNL     1      -9.190 -11.237   3.122  0.00  0.00    +0.007 A 
ATOM     34  C   UNL     1      -8.626 -11.803   4.314  0.00  0.00    -0.029 A 
ATOM     35  C   UNL     1      -9.221 -13.124   4.855  0.00  0.00    +0.045 C 
ENDROOT
BRANCH  10   9
ATOM      4  C   UNL     1      -7.277 -11.537   9.730  0.00  0.00    +0.077 A 
ATOM      5  C   UNL     1      -8.408 -10.676   9.923  0.00  0.00    +0.048 A 
ATOM      6  C   UNL     1      -9.017 -10.135   8.769  0.00  0.00    +0.116 A 
ATOM      7  N   UNL     1      -8.523 -10.439   7.519  0.00  0.00    -0.223 NA
ATOM      8  C   UNL     1      -7.429 -11.271   7.367  0.00  0.00    +0.220 A 
ATOM      9  N   UNL     1      -6.921 -11.597   6.119  0.00  0.00    -0.283 N 
ATOM     36  H   UNL     1      -6.108 -12.209   6.050  0.00  0.00    +0.155 HD
ATOM     37  N   UNL     1      -6.829 -11.800   8.454  0.00  0.00    -0.214 NA
BRANCH   4   3
ATOM      1  C   UNL     1      -4.602 -12.318  12.475  0.00  0.00    +0.020 A 
ATOM      2  C   UNL     1      -5.285 -11.651  11.391  0.00  0.00    +0.013 A 
ATOM      3  C   UNL     1      -6.528 -12.188  10.851  0.00  0.00    +0.019 A 
ATOM     38  C   UNL     1      -7.057 -13.411  11.435  0.00  0.00    +0.120 A 
ATOM     39  N   UNL     1      -6.376 -14.033  12.477  0.00  0.00    -0.263 NA
ATOM     40  C   UNL     1      -5.179 -13.526  13.004  0.00  0.00    +0.111 A 
ENDBRANCH   4   3
ENDBRANCH  10   9
BRANCH  12  13
ATOM     13  N   UNL     1      -7.111  -8.108   2.577  0.00  0.00    -0.281 N 
ATOM     14  C   UNL     1      -7.137  -6.825   3.099  0.00  0.00    +0.248 C 
ATOM     30  O   UNL     1      -7.769  -6.496   4.092  0.00  0.00    -0.270 OA
ATOM     31  H   UNL     1      -6.708  -8.205   1.645  0.00  0.00    +0.155 HD
BRANCH  14  15
ATOM     15  C   UNL     1      -6.361  -5.750   2.411  0.00  0.00    +0.037 A 
ATOM     16  C   UNL     1      -5.305  -6.072   1.447  0.00  0.00    +0.013 A 
ATOM     17  C   UNL     1      -4.560  -5.016   0.810  0.00  0.00    +0.005 A 
ATOM     18  C   UNL     1      -4.870  -3.625   1.134  0.00  0.00    -0.033 A 
ATOM     28  C   UNL     1      -5.925  -3.333   2.089  0.00  0.00    +0.005 A 
ATOM     29  C   UNL     1      -6.657  -4.366   2.717  0.00  0.00    +0.013 A 
BRANCH  18  19
ATOM     19  C   UNL     1      -4.111  -2.434   0.518  0.00  0.00    +0.119 C 
BRANCH  19  20
ATOM     20  N   UNL     1      -4.679  -1.831  -0.725  0.00  0.00    -0.302 NA
ATOM     21  C   UNL     1      -3.808  -2.118  -1.952  0.00  0.00    +0.066 C 
ATOM     22  C   UNL     1      -4.428  -1.499  -3.247  0.00  0.00    -0.064 C 
ATOM     23  N   UNL     1      -4.611   0.007  -3.052  0.00  0.00    +0.379 N 
ATOM     24  C   UNL     1      -5.140   0.601  -4.289  0.00  0.00    -0.096 C 
ATOM     25  H   UNL     1      -3.604   0.448  -2.868  0.00  0.00    -0.082 HD
ATOM     26  C   UNL     1      -5.473   0.301  -1.833  0.00  0.00    -0.064 C 
ATOM     27  C   UNL     1      -4.864  -0.343  -0.556  0.00  0.00    +0.066 C 
ENDBRANCH  19  20
ENDBRANCH  18  19
ENDBRANCH  14  15
ENDBRANCH  12  13
TORSDOF 6
ENDMDL
MODEL 3
REMARK VINA RESULT:      -9.8      3.360      4.446
REMARK  Name = C:\Users\Docking\Desktop\test protocol\1iep_ligandH.pdb
REMARK  8 active torsions:
REMARK  status: ('A' for Active; 'I' for Inactive)
REMARK    1  A    between atoms: _5  and  _11
REMARK    2  A    between atoms: _19  and  _21
REMARK    3  A    between atoms: _22  and  _66
REMARK    4  A    between atoms: _27  and  _30
REMARK    5  A    between atoms: _32  and  _33
REMARK    6  A    between atoms: _38  and  _43
REMARK    7  A    between atoms: _43  and  _46
REMARK    8  A    between atoms: _53  and  _55
REMARK                            x       y       z     vdW  Elec       q    Type
REMARK                         _______ _______ _______ _____ _____    ______ ____
ROOT
ATOM     10  C   UNL     1      -8.644 -10.422   2.089  0.00  0.00    +0.038 A 
ATOM     11  C   UNL     1      -8.308 -11.001   3.340  0.00  0.00    +0.047 A 
ATOM     12  C   UNL     1      -9.142 -10.792   4.514  0.00  0.00    +0.035 A 
ATOM     32  C   UNL     1     -10.312  -9.990   4.377  0.00  0.00    +0.024 A 
ATOM     33  C   UNL     1     -10.668  -9.393   3.114  0.00  0.00    +0.007 A 
ATOM     34  C   UNL     1      -9.848  -9.593   1.953  0.00  0.00    -0.029 A 
ATOM     35  C   UNL     1     -10.274  -8.924   0.626  0.00  0.00    +0.045 C 
ENDROOT
BRANCH  10   9
ATOM      4  C   UNL     1      -4.455  -9.970  -0.209  0.00  0.00    +0.077 A 
ATOM      5  C   UNL     1      -3.893  -9.179   0.848  0.00  0.00    +0.048 A 
ATOM      6  C   UNL     1      -4.717  -8.905   1.962  0.00  0.00    +0.116 A 
ATOM      7  N   UNL     1      -6.006  -9.391   2.006  0.00  0.00    -0.223 NA
ATOM      8  C   UNL     1      -6.517 -10.150   0.969  0.00  0.00    +0.220 A 
ATOM      9  N   UNL     1      -7.808 -10.655   0.995  0.00  0.00    -0.283 N 
ATOM     36  H   UNL     1      -8.151 -11.204   0.207  0.00  0.00    +0.155 HD
ATOM     37  N   UNL     1      -5.751 -10.424  -0.107  0.00  0.00    -0.214 NA
BRANCH   4   3
ATOM      1  C   UNL     1      -1.784 -10.101  -3.064  0.00  0.00    +0.020 A 
ATOM      2  C   UNL     1      -2.466  -9.699  -1.855  0.00  0.00    +0.013 A 
ATOM      3  C   UNL     1      -3.708 -10.347  -1.451  0.00  0.00    +0.019 A 
ATOM     38  C   UNL     1      -4.236 -11.406  -2.297  0.00  0.00    +0.120 A 
ATOM     39  N   UNL     1      -3.557 -11.771  -3.456  0.00  0.00    -0.263 NA
ATOM     40  C   UNL     1      -2.363 -11.154  -3.856  0.00  0.00    +0.111 A 
ENDBRANCH   4   3
ENDBRANCH  10   9
BRANCH  12  13
ATOM     13  N   UNL     1      -8.847 -11.348   5.811  0.00  0.00    -0.281 N 
ATOM     14  C   UNL     1      -8.088 -10.787   6.825  0.00  0.00    +0.248 C 
ATOM     30  O   UNL     1      -7.367  -9.810   6.689  0.00  0.00    -0.270 OA
ATOM     31  H   UNL     1      -9.246 -12.266   6.006  0.00  0.00    +0.155 HD
BRANCH  14  15
ATOM     15  C   UNL     1      -8.124 -11.409   8.184  0.00  0.00    +0.037 A 
ATOM     16  C   UNL     1      -8.675 -10.690   9.335  0.00  0.00    +0.013 A 
ATOM     17  C   UNL     1      -8.683 -11.308  10.638  0.00  0.00    +0.005 A 
ATOM     18  C   UNL     1      -8.138 -12.654  10.795  0.00  0.00    -0.033 A 
ATOM     28  C   UNL     1      -7.603 -13.347   9.635  0.00  0.00    +0.005 A 
ATOM     29  C   UNL     1      -7.593 -12.744   8.357  0.00  0.00    +0.013 A 
BRANCH  18  19
ATOM     19  C   UNL     1      -8.086 -13.382  12.151  0.00  0.00    +0.119 C 
BRANCH  19  20
ATOM     20  N   UNL     1      -6.736 -13.670  12.721  0.00  0.00    -0.302 NA
ATOM     21  C   UNL     1      -5.689 -12.653  12.260  0.00  0.00    +0.066 C 
ATOM     22  C   UNL     1      -4.287 -12.956  12.883  0.00  0.00    -0.064 C 
ATOM     23  N   UNL     1      -3.863 -14.377  12.510  0.00  0.00    +0.379 N 
ATOM     24  C   UNL     1      -2.520 -14.645  13.046  0.00  0.00    -0.096 C 
ATOM     25  H   UNL     1      -3.800 -14.430  11.399  0.00  0.00    -0.082 HD
ATOM     26  C   UNL     1      -4.900 -15.395  12.963  0.00  0.00    -0.064 C 
ATOM     27  C   UNL     1      -6.295 -15.067  12.361  0.00  0.00    +0.066 C 
ENDBRANCH  19  20
ENDBRANCH  18  19
ENDBRANCH  14  15
ENDBRANCH  12  13
TORSDOF 6
ENDMDL
MODEL 4
REMARK VINA RESULT:      -9.7      1.766      2.728
REMARK  Name = C:\Users\Docking\Desktop\test protocol\1iep_ligandH.pdb
REMARK  8 active torsions:
REMARK  status: ('A' for Active; 'I' for Inactive)
REMARK    1  A    between atoms: _5  and  _11
REMARK    2  A    between atoms: _19  and  _21
REMARK    3  A    between atoms: _22  and  _66
REMARK    4  A    between atoms: _27  and  _30
REMARK    5  A    between atoms: _32  and  _33
REMARK    6  A    between atoms: _38  and  _43
REMARK    7  A    between atoms: _43  and  _46
REMARK    8  A    between atoms: _53  and  _55
REMARK                            x       y       z     vdW  Elec       q    Type
REMARK                         _______ _______ _______ _____ _____    ______ ____
ROOT
ATOM     10  C   UNL     1      -7.558 -10.068   3.230  0.00  0.00    +0.038 A 
ATOM     11  C   UNL     1      -7.127 -10.474   4.519  0.00  0.00    +0.047 A 
ATOM     12  C   UNL     1      -7.750 -11.597   5.201  0.00  0.00    +0.035 A 
ATOM     32  C   UNL     1      -8.807 -12.287   4.539  0.00  0.00    +0.024 A 
ATOM     33  C   UNL     1      -9.258 -11.888   3.230  0.00  0.00    +0.007 A 
ATOM     34  C   UNL     1      -8.649 -10.778   2.553  0.00  0.00    -0.029 A 
ATOM     35  C   UNL     1      -9.178 -10.390   1.152  0.00  0.00    +0.045 C 
ENDROOT
BRANCH  10   9
ATOM      4  C   UNL     1      -6.527  -5.389   2.937  0.00  0.00    +0.077 A 
ATOM      5  C   UNL     1      -7.340  -5.078   4.077  0.00  0.00    +0.048 A 
ATOM      6  C   UNL     1      -8.013  -6.150   4.706  0.00  0.00    +0.116 A 
ATOM      7  N   UNL     1      -7.875  -7.433   4.222  0.00  0.00    -0.223 NA
ATOM      8  C   UNL     1      -7.084  -7.698   3.120  0.00  0.00    +0.220 A 
ATOM      9  N   UNL     1      -6.924  -8.982   2.621  0.00  0.00    -0.283 N 
ATOM     36  H   UNL     1      -6.338  -9.135   1.801  0.00  0.00    +0.155 HD
ATOM     37  N   UNL     1      -6.432  -6.692   2.500  0.00  0.00    -0.214 NA
BRANCH   4   3
ATOM      1  C   UNL     1      -5.039  -1.993   1.690  0.00  0.00    +0.020 A 
ATOM      2  C   UNL     1      -5.808  -2.940   2.463  0.00  0.00    +0.013 A 
ATOM      3  C   UNL     1      -5.751  -4.366   2.167  0.00  0.00    +0.019 A 
ATOM     38  C   UNL     1      -4.898  -4.804   1.073  0.00  0.00    +0.120 A 
ATOM     39  N   UNL     1      -4.169  -3.870   0.344  0.00  0.00    -0.263 NA
ATOM     40  C   UNL     1      -4.218  -2.495   0.619  0.00  0.00    +0.111 A 
ENDBRANCH   4   3
ENDBRANCH  10   9
BRANCH  12  13
ATOM     13  N   UNL     1      -7.361 -12.050   6.513  0.00  0.00    -0.281 N 
ATOM     14  C   UNL     1      -7.330 -11.322   7.691  0.00  0.00    +0.248 C 
ATOM     30  O   UNL     1      -7.431 -10.105   7.754  0.00  0.00    -0.270 OA
ATOM     31  H   UNL     1      -7.072 -13.026   6.583  0.00  0.00    +0.155 HD
BRANCH  14  15
ATOM     15  C   UNL     1      -7.148 -12.048   8.985  0.00  0.00    +0.037 A 
ATOM     16  C   UNL     1      -6.432 -11.434  10.106  0.00  0.00    +0.013 A 
ATOM     17  C   UNL     1      -6.256 -12.163  11.337  0.00  0.00    +0.005 A 
ATOM     18  C   UNL     1      -6.798 -13.515  11.453  0.00  0.00    -0.033 A 
ATOM     28  C   UNL     1      -7.508 -14.097  10.327  0.00  0.00    +0.005 A 
ATOM     29  C   UNL     1      -7.682 -13.386   9.119  0.00  0.00    +0.013 A 
BRANCH  18  19
ATOM     19  C   UNL     1      -6.638 -14.374  12.722  0.00  0.00    +0.119 C 
BRANCH  19  20
ATOM     20  N   UNL     1      -7.870 -14.651  13.519  0.00  0.00    -0.302 NA
ATOM     21  C   UNL     1      -8.570 -15.936  13.068  0.00  0.00    +0.066 C 
ATOM     22  C   UNL     1      -9.844 -16.223  13.927  0.00  0.00    -0.064 C 
ATOM     23  N   UNL     1     -10.795 -15.028  13.839  0.00  0.00    +0.379 N 
ATOM     24  C   UNL     1     -12.019 -15.318  14.599  0.00  0.00    -0.096 C 
ATOM     25  H   UNL     1     -11.082 -14.904  12.769  0.00  0.00    -0.082 HD
ATOM     26  C   UNL     1     -10.106 -13.746  14.283  0.00  0.00    -0.064 C 
ATOM     27  C   UNL     1      -8.825 -13.486  13.442  0.00  0.00    +0.066 C 
ENDBRANCH  19  20
ENDBRANCH  18  19
ENDBRANCH  14  15
ENDBRANCH  12  13
TORSDOF 6
ENDMDL
MODEL 5
REMARK VINA RESULT:      -9.7      3.731      4.995
REMARK  Name = C:\Users\Docking\Desktop\test protocol\1iep_ligandH.pdb
REMARK  8 active torsions:
REMARK  status: ('A' for Active; 'I' for Inactive)
REMARK    1  A    between atoms: _5  and  _11
REMARK    2  A    between atoms: _19  and  _21
REMARK    3  A    between atoms: _22  and  _66
REMARK    4  A    between atoms: _27  and  _30
REMARK    5  A    between atoms: _32  and  _33
REMARK    6  A    between atoms: _38  and  _43
REMARK    7  A    between atoms: _43  and  _46
REMARK    8  A    between atoms: _53  and  _55
REMARK                            x       y       z     vdW  Elec       q    Type
REMARK                         _______ _______ _______ _____ _____    ______ ____
ROOT
ATOM     10  C   UNL     1      -8.602 -10.414   2.108  0.00  0.00    +0.038 A 
ATOM     11  C   UNL     1      -8.277 -11.006   3.354  0.00  0.00    +0.047 A 
ATOM     12  C   UNL     1      -9.116 -10.805   4.525  0.00  0.00    +0.035 A 
ATOM     32  C   UNL     1     -10.282  -9.996   4.390  0.00  0.00    +0.024 A 
ATOM     33  C   UNL     1     -10.627  -9.385   3.130  0.00  0.00    +0.007 A 
ATOM     34  C   UNL     1      -9.801  -9.578   1.972  0.00  0.00    -0.029 A 
ATOM     35  C   UNL     1     -10.217  -8.894   0.649  0.00  0.00    +0.045 C 
ENDROOT
BRANCH  10   9
ATOM      4  C   UNL     1      -4.414  -9.916  -0.184  0.00  0.00    +0.077 A 
ATOM      5  C   UNL     1      -3.865  -9.114   0.871  0.00  0.00    +0.048 A 
ATOM      6  C   UNL     1      -4.695  -8.846   1.983  0.00  0.00    +0.116 A 
ATOM      7  N   UNL     1      -5.978  -9.349   2.025  0.00  0.00    -0.223 NA
ATOM      8  C   UNL     1      -6.477 -10.118   0.990  0.00  0.00    +0.220 A 
ATOM      9  N   UNL     1      -7.761 -10.641   1.016  0.00  0.00    -0.283 N 
ATOM     36  H   UNL     1      -8.095 -11.197   0.229  0.00  0.00    +0.155 HD
ATOM     37  N   UNL     1      -5.704 -10.387  -0.083  0.00  0.00    -0.214 NA
BRANCH   4   3
ATOM      1  C   UNL     1      -3.330 -11.662  -3.512  0.00  0.00    +0.020 A 
ATOM      2  C   UNL     1      -4.096 -11.343  -2.329  0.00  0.00    +0.013 A 
ATOM      3  C   UNL     1      -3.659 -10.288  -1.422  0.00  0.00    +0.019 A 
ATOM     38  C   UNL     1      -2.435  -9.571  -1.744  0.00  0.00    +0.120 A 
ATOM     39  N   UNL     1      -1.718  -9.902  -2.889  0.00  0.00    -0.263 NA
ATOM     40  C   UNL     1      -2.127 -10.915  -3.769  0.00  0.00    +0.111 A 
ENDBRANCH   4   3
ENDBRANCH  10   9
BRANCH  12  13
ATOM     13  N   UNL     1      -8.832 -11.374   5.819  0.00  0.00    -0.281 N 
ATOM     14  C   UNL     1      -8.115 -10.807   6.860  0.00  0.00    +0.248 C 
ATOM     30  O   UNL     1      -7.425  -9.804   6.758  0.00  0.00    -0.270 OA
ATOM     31  H   UNL     1      -9.204 -12.309   5.988  0.00  0.00    +0.155 HD
BRANCH  14  15
ATOM     15  C   UNL     1      -8.161 -11.456   8.206  0.00  0.00    +0.037 A 
ATOM     16  C   UNL     1      -7.463 -12.717   8.465  0.00  0.00    +0.013 A 
ATOM     17  C   UNL     1      -7.537 -13.331   9.768  0.00  0.00    +0.005 A 
ATOM     18  C   UNL     1      -8.313 -12.681  10.822  0.00  0.00    -0.033 A 
ATOM     28  C   UNL     1      -8.992 -11.428  10.539  0.00  0.00    +0.005 A 
ATOM     29  C   UNL     1      -8.922 -10.824   9.263  0.00  0.00    +0.013 A 
BRANCH  18  19
ATOM     19  C   UNL     1      -8.465 -13.275  12.235  0.00  0.00    +0.119 C 
BRANCH  19  20
ATOM     20  N   UNL     1      -9.221 -14.557  12.360  0.00  0.00    -0.302 NA
ATOM     21  C   UNL     1      -8.373 -15.766  11.954  0.00  0.00    +0.066 C 
ATOM     22  C   UNL     1      -9.172 -17.100  12.113  0.00  0.00    -0.064 C 
ATOM     23  N   UNL     1     -10.450 -17.029  11.276  0.00  0.00    +0.379 N 
ATOM     24  C   UNL     1     -11.175 -18.304  11.377  0.00  0.00    -0.096 C 
ATOM     25  H   UNL     1     -10.150 -16.894  10.211  0.00  0.00    -0.082 HD
ATOM     26  C   UNL     1     -11.298 -15.828  11.671  0.00  0.00    -0.064 C 
ATOM     27  C   UNL     1     -10.485 -14.510  11.538  0.00  0.00    +0.066 C 
ENDBRANCH  19  20
ENDBRANCH  18  19
ENDBRANCH  14  15
ENDBRANCH  12  13
TORSDOF 6
ENDMDL
