MODEL 1
REMARK VINA RESULT:      -8.8      0.000      0.000
REMARK  Name = C:\Users\Docking\Desktop\test protocol\1iep_ligandH.pdb
REMARK  8 active torsions:
REMARK  status: ('A' for Active; 'I' for Inactive)
REMARK    1  A    between atoms: _5  and  _11
REMARK    2  A    between atoms: _19  and  _21
REMARK    3  A    between atoms: _22  and  _66
REMARK    4  A    between atoms: _27  and  _30
REMARK    5  A    between atoms: _32  and  _33
REMARK    6  A    between atoms: _38  and  _43
REMARK    7  A    between atoms: _43  and  _46
REMARK    8  A    between atoms: _53  and  _55
REMARK                            x       y       z     vdW  Elec       q    Type
REMARK                         _______ _______ _______ _____ _____    ______ ____
ROOT
ATOM     10  C   UNL     1      -7.756  -7.724   5.332  0.00  0.00    +0.038 A 
ATOM     11  C   UNL     1      -7.338  -6.435   4.915  0.00  0.00    +0.047 A 
ATOM     12  C   UNL     1      -7.923  -5.795   3.746  0.00  0.00    +0.035 A 
ATOM     32  C   UNL     1      -8.935  -6.497   3.028  0.00  0.00    +0.024 A 
ATOM     33  C   UNL     1      -9.371  -7.808   3.438  0.00  0.00    +0.007 A 
ATOM     34  C   UNL     1      -8.795  -8.445   4.588  0.00  0.00    -0.029 A 
ATOM     35  C   UNL     1      -9.297  -9.855   4.977  0.00  0.00    +0.045 C 
ENDROOT
BRANCH  10   9
ATOM      4  C   UNL     1      -7.568  -8.546  10.057  0.00  0.00    +0.077 A 
ATOM      5  C   UNL     1      -8.742  -7.757  10.301  0.00  0.00    +0.048 A 
ATOM      6  C   UNL     1      -9.360  -7.151   9.184  0.00  0.00    +0.116 A 
ATOM      7  N   UNL     1      -8.835  -7.328   7.922  0.00  0.00    -0.223 NA
ATOM      8  C   UNL     1      -7.701  -8.093   7.722  0.00  0.00    +0.220 A 
ATOM      9  N   UNL     1      -7.160  -8.291   6.461  0.00  0.00    -0.283 N 
ATOM     36  H   UNL     1      -6.318  -8.856   6.356  0.00  0.00    +0.155 HD
ATOM     37  N   UNL     1      -7.091  -8.681   8.773  0.00  0.00    -0.214 NA
BRANCH   4   3
ATOM      1  C   UNL     1      -4.852  -9.469  12.716  0.00  0.00    +0.020 A 
ATOM      2  C   UNL     1      -5.549  -8.748  11.676  0.00  0.00    +0.013 A 
ATOM      3  C   UNL     1      -6.805  -9.252  11.134  0.00  0.00    +0.019 A 
ATOM     38  C   UNL     1      -7.333 -10.497  11.672  0.00  0.00    +0.120 A 
ATOM     39  N   UNL     1      -6.639 -11.170  12.672  0.00  0.00    -0.263 NA
ATOM     40  C   UNL     1      -5.428 -10.696  13.200  0.00  0.00    +0.111 A 
ENDBRANCH   4   3
ENDBRANCH  10   9
BRANCH  12  13
ATOM     13  N   UNL     1      -7.533  -4.491   3.270  0.00  0.00    -0.281 N 
ATOM     14  C   UNL     1      -7.831  -3.258   3.826  0.00  0.00    +0.248 C 
ATOM     30  O   UNL     1      -8.662  -3.077   4.703  0.00  0.00    -0.270 OA
ATOM     31  H   UNL     1      -6.968  -4.476   2.421  0.00  0.00    +0.155 HD
BRANCH  14  15
ATOM     15  C   UNL     1      -7.111  -2.047   3.324  0.00  0.00    +0.037 A 
ATOM     16  C   UNL     1      -7.186  -0.769   4.036  0.00  0.00    +0.013 A 
ATOM     17  C   UNL     1      -6.496   0.387   3.522  0.00  0.00    +0.005 A 
ATOM     18  C   UNL     1      -5.723   0.269   2.288  0.00  0.00    -0.033 A 
ATOM     28  C   UNL     1      -5.661  -1.012   1.604  0.00  0.00    +0.005 A 
ATOM     29  C   UNL     1      -6.337  -2.147   2.105  0.00  0.00    +0.013 A 
BRANCH  18  19
ATOM     19  C   UNL     1      -4.973   1.456   1.655  0.00  0.00    +0.119 C 
BRANCH  19  20
ATOM     20  N   UNL     1      -4.886   1.493   0.164  0.00  0.00    -0.302 NA
ATOM     21  C   UNL     1      -3.450   1.298  -0.333  0.00  0.00    +0.066 C 
ATOM     22  C   UNL     1      -3.381   1.318  -1.894  0.00  0.00    -0.064 C 
ATOM     23  N   UNL     1      -3.959   2.636  -2.411  0.00  0.00    +0.379 N 
ATOM     24  C   UNL     1      -3.842   2.682  -3.876  0.00  0.00    -0.096 C 
ATOM     25  H   UNL     1      -3.337   3.463  -1.996  0.00  0.00    -0.082 HD
ATOM     26  C   UNL     1      -5.385   2.840  -1.920  0.00  0.00    -0.064 C 
ATOM     27  C   UNL     1      -5.447   2.789  -0.368  0.00  0.00    +0.066 C 
ENDBRANCH  19  20
ENDBRANCH  18  19
ENDBRANCH  14  15
ENDBRANCH  12  13
TORSDOF 6
ENDMDL
MODEL 2
REMARK VINA RESULT:      -8.7      4.563     11.709
REMARK  Name = C:\Users\Docking\Desktop\test protocol\1iep_ligandH.pdb
REMARK  8 active torsions:
REMARK  status: ('A' for Active; 'I' for Inactive)
REMARK    1  A    between atoms: _5  and  _11
REMARK    2  A    between atoms: _19  and  _21
REMARK    3  A    between atoms: _22  and  _66
REMARK    4  A    between atoms: _27  and  _30
REMARK    5  A    between atoms: _32  and  _33
REMARK    6  A    between atoms: _38  and  _43
REMARK    7  A    between atoms: _43  and  _46
REMARK    8  A    between atoms: _53  and  _55
REMARK                            x       y       z     vdW  Elec       q    Type
REMARK                         _______ _______ _______ _____ _____    ______ ____
ROOT
ATOM     10  C   UNL     1      -6.803  -4.175   4.720  0.00  0.00    +0.038 A 
ATOM     11  C   UNL     1      -6.157  -4.812   5.811  0.00  0.00    +0.047 A 
ATOM     12  C   UNL     1      -5.900  -4.101   7.053  0.00  0.00    +0.035 A 
ATOM     32  C   UNL     1      -6.318  -2.741   7.152  0.00  0.00    +0.024 A 
ATOM     33  C   UNL     1      -6.975  -2.078   6.053  0.00  0.00    +0.007 A 
ATOM     34  C   UNL     1      -7.229  -2.774   4.824  0.00  0.00    -0.029 A 
ATOM     35  C   UNL     1      -7.931  -2.011   3.677  0.00  0.00    +0.045 C 
ENDROOT
BRANCH  10   9
ATOM      4  C   UNL     1      -9.422  -7.166   2.030  0.00  0.00    +0.077 A 
ATOM      5  C   UNL     1     -10.420  -7.305   3.052  0.00  0.00    +0.048 A 
ATOM      6  C   UNL     1     -10.218  -6.596   4.257  0.00  0.00    +0.116 A 
ATOM      7  N   UNL     1      -9.098  -5.809   4.418  0.00  0.00    -0.223 NA
ATOM      8  C   UNL     1      -8.155  -5.698   3.414  0.00  0.00    +0.220 A 
ATOM      9  N   UNL     1      -7.025  -4.906   3.551  0.00  0.00    -0.283 N 
ATOM     36  H   UNL     1      -6.349  -4.856   2.790  0.00  0.00    +0.155 HD
ATOM     37  N   UNL     1      -8.324  -6.366   2.254  0.00  0.00    -0.214 NA
BRANCH   4   3
ATOM      1  C   UNL     1     -10.742  -9.073  -1.119  0.00  0.00    +0.020 A 
ATOM      2  C   UNL     1     -10.725  -8.425   0.172  0.00  0.00    +0.013 A 
ATOM      3  C   UNL     1      -9.495  -7.849   0.700  0.00  0.00    +0.019 A 
ATOM     38  C   UNL     1      -8.290  -7.946  -0.109  0.00  0.00    +0.120 A 
ATOM     39  N   UNL     1      -8.336  -8.578  -1.348  0.00  0.00    -0.263 NA
ATOM     40  C   UNL     1      -9.514  -9.137  -1.866  0.00  0.00    +0.111 A 
ENDBRANCH   4   3
ENDBRANCH  10   9
BRANCH  12  13
ATOM     13  N   UNL     1      -5.241  -4.693   8.191  0.00  0.00    -0.281 N 
ATOM     14  C   UNL     1      -5.635  -5.801   8.922  0.00  0.00    +0.248 C 
ATOM     30  O   UNL     1      -6.735  -6.328   8.839  0.00  0.00    -0.270 OA
ATOM     31  H   UNL     1      -4.379  -4.239   8.494  0.00  0.00    +0.155 HD
BRANCH  14  15
ATOM     15  C   UNL     1      -4.674  -6.403   9.895  0.00  0.00    +0.037 A 
ATOM     16  C   UNL     1      -5.115  -7.384  10.891  0.00  0.00    +0.013 A 
ATOM     17  C   UNL     1      -4.171  -7.936  11.829  0.00  0.00    +0.005 A 
ATOM     18  C   UNL     1      -2.775  -7.509  11.776  0.00  0.00    -0.033 A 
ATOM     28  C   UNL     1      -2.364  -6.539  10.775  0.00  0.00    +0.005 A 
ATOM     29  C   UNL     1      -3.286  -5.995   9.854  0.00  0.00    +0.013 A 
BRANCH  18  19
ATOM     19  C   UNL     1      -1.703  -8.030  12.751  0.00  0.00    +0.119 C 
BRANCH  19  20
ATOM     20  N   UNL     1      -1.033  -9.320  12.407  0.00  0.00    -0.302 NA
ATOM     21  C   UNL     1      -0.454  -9.306  10.989  0.00  0.00    +0.066 C 
ATOM     22  C   UNL     1       0.262 -10.654  10.653  0.00  0.00    -0.064 C 
ATOM     23  N   UNL     1      -0.726 -11.809  10.823  0.00  0.00    +0.379 N 
ATOM     24  C   UNL     1      -0.072 -13.073  10.453  0.00  0.00    -0.096 C 
ATOM     25  H   UNL     1      -1.567 -11.642  10.111  0.00  0.00    -0.082 HD
ATOM     26  C   UNL     1      -1.309 -11.829  12.230  0.00  0.00    -0.064 C 
ATOM     27  C   UNL     1      -1.992 -10.474  12.564  0.00  0.00    +0.066 C 
ENDBRANCH  19  20
ENDBRANCH  18  19
ENDBRANCH  14  15
ENDBRANCH  12  13
TORSDOF 6
ENDMDL
MODEL 3
REMARK VINA RESULT:      -8.6      4.238     13.997
REMARK  Name = C:\Users\Docking\Desktop\test protocol\1iep_ligandH.pdb
REMARK  8 active torsions:
REMARK  status: ('A' for Active; 'I' for Inactive)
REMARK    1  A    between atoms: _5  and  _11
REMARK    2  A    between atoms: _19  and  _21
REMARK    3  A    between atoms: _22  and  _66
REMARK    4  A    between atoms: _27  and  _30
REMARK    5  A    between atoms: _32  and  _33
REMARK    6  A    between atoms: _38  and  _43
REMARK    7  A    between atoms: _43  and  _46
REMARK    8  A    between atoms: _53  and  _55
REMARK                            x       y       z     vdW  Elec       q    Type
REMARK                         _______ _______ _______ _____ _____    ______ ____
ROOT
ATOM     10  C   UNL     1      -4.569   3.623  -0.602  0.00  0.00    +0.038 A 
ATOM     11  C   UNL     1      -5.140   2.581   0.172  0.00  0.00    +0.047 A 
ATOM     12  C   UNL     1      -5.372   1.262  -0.396  0.00  0.00    +0.035 A 
ATOM     32  C   UNL     1      -5.008   1.039  -1.756  0.00  0.00    +0.024 A 
ATOM     33  C   UNL     1      -4.428   2.088  -2.558  0.00  0.00    +0.007 A 
ATOM     34  C   UNL     1      -4.199   3.391  -2.003  0.00  0.00    -0.029 A 
ATOM     35  C   UNL     1      -3.580   4.479  -2.911  0.00  0.00    +0.045 C 
ENDROOT
BRANCH  10   9
ATOM      4  C   UNL     1      -1.996   6.675   2.064  0.00  0.00    +0.077 A 
ATOM      5  C   UNL     1      -0.979   5.694   2.311  0.00  0.00    +0.048 A 
ATOM      6  C   UNL     1      -1.159   4.414   1.740  0.00  0.00    +0.116 A 
ATOM      7  N   UNL     1      -2.277   4.146   0.980  0.00  0.00    -0.223 NA
ATOM      8  C   UNL     1      -3.240   5.115   0.762  0.00  0.00    +0.220 A 
ATOM      9  N   UNL     1      -4.368   4.870  -0.005  0.00  0.00    -0.283 N 
ATOM     36  H   UNL     1      -5.059   5.609  -0.136  0.00  0.00    +0.155 HD
ATOM     37  N   UNL     1      -3.091   6.344   1.298  0.00  0.00    -0.214 NA
BRANCH   4   3
ATOM      1  C   UNL     1      -3.031  10.145   3.542  0.00  0.00    +0.020 A 
ATOM      2  C   UNL     1      -3.133   8.796   3.036  0.00  0.00    +0.013 A 
ATOM      3  C   UNL     1      -1.946   8.073   2.596  0.00  0.00    +0.019 A 
ATOM     38  C   UNL     1      -0.661   8.749   2.683  0.00  0.00    +0.120 A 
ATOM     39  N   UNL     1      -0.593  10.050   3.174  0.00  0.00    -0.263 NA
ATOM     40  C   UNL     1      -1.729  10.756   3.598  0.00  0.00    +0.111 A 
ENDBRANCH   4   3
ENDBRANCH  10   9
BRANCH  12  13
ATOM     13  N   UNL     1      -5.956   0.167   0.339  0.00  0.00    -0.281 N 
ATOM     14  C   UNL     1      -5.302  -0.858   1.002  0.00  0.00    +0.248 C 
ATOM     30  O   UNL     1      -4.112  -1.110   0.882  0.00  0.00    -0.270 OA
ATOM     31  H   UNL     1      -6.975   0.146   0.375  0.00  0.00    +0.155 HD
BRANCH  14  15
ATOM     15  C   UNL     1      -6.085  -1.741   1.918  0.00  0.00    +0.037 A 
ATOM     16  C   UNL     1      -5.686  -3.129   2.162  0.00  0.00    +0.013 A 
ATOM     17  C   UNL     1      -6.469  -3.965   3.037  0.00  0.00    +0.005 A 
ATOM     18  C   UNL     1      -7.661  -3.412   3.677  0.00  0.00    -0.033 A 
ATOM     28  C   UNL     1      -8.031  -2.030   3.422  0.00  0.00    +0.005 A 
ATOM     29  C   UNL     1      -7.266  -1.209   2.563  0.00  0.00    +0.013 A 
BRANCH  18  19
ATOM     19  C   UNL     1      -8.568  -4.237   4.610  0.00  0.00    +0.119 C 
BRANCH  19  20
ATOM     20  N   UNL     1      -8.443  -5.723   4.545  0.00  0.00    -0.302 NA
ATOM     21  C   UNL     1      -9.769  -6.396   4.179  0.00  0.00    +0.066 C 
ATOM     22  C   UNL     1      -9.615  -7.949   4.094  0.00  0.00    -0.064 C 
ATOM     23  N   UNL     1      -9.089  -8.481   5.429  0.00  0.00    +0.379 N 
ATOM     24  C   UNL     1      -8.998  -9.947   5.372  0.00  0.00    -0.096 C 
ATOM     25  H   UNL     1      -9.836  -8.218   6.214  0.00  0.00    -0.082 HD
ATOM     26  C   UNL     1      -7.772  -7.815   5.802  0.00  0.00    -0.064 C 
ATOM     27  C   UNL     1      -7.929  -6.270   5.855  0.00  0.00    +0.066 C 
ENDBRANCH  19  20
ENDBRANCH  18  19
ENDBRANCH  14  15
ENDBRANCH  12  13
TORSDOF 6
ENDMDL
MODEL 4
REMARK VINA RESULT:      -8.4      5.314     13.339
REMARK  Name = C:\Users\Docking\Desktop\test protocol\1iep_ligandH.pdb
REMARK  8 active torsions:
REMARK  status: ('A' for Active; 'I' for Inactive)
REMARK    1  A    between atoms: _5  and  _11
REMARK    2  A    between atoms: _19  and  _21
REMARK    3  A    between atoms: _22  and  _66
REMARK    4  A    between atoms: _27  and  _30
REMARK    5  A    between atoms: _32  and  _33
REMARK    6  A    between atoms: _38  and  _43
REMARK    7  A    between atoms: _43  and  _46
REMARK    8  A    between atoms: _53  and  _55
REMARK                            x       y       z     vdW  Elec       q    Type
REMARK                         _______ _______ _______ _____ _____    ______ ____
ROOT
ATOM     10  C   UNL     1      -6.992  -6.427   5.960  0.00  0.00    +0.038 A 
ATOM     11  C   UNL     1      -7.560  -7.214   6.994  0.00  0.00    +0.047 A 
ATOM     12  C   UNL     1      -7.450  -6.818   8.389  0.00  0.00    +0.035 A 
ATOM     32  C   UNL     1      -6.757  -5.611   8.696  0.00  0.00    +0.024 A 
ATOM     33  C   UNL     1      -6.172  -4.799   7.658  0.00  0.00    +0.007 A 
ATOM     34  C   UNL     1      -6.275  -5.186   6.280  0.00  0.00    -0.029 A 
ATOM     35  C   UNL     1      -5.624  -4.280   5.209  0.00  0.00    +0.045 C 
ENDROOT
BRANCH  10   9
ATOM      4  C   UNL     1      -9.655  -7.622   2.150  0.00  0.00    +0.077 A 
ATOM      5  C   UNL     1     -10.880  -7.400   2.863  0.00  0.00    +0.048 A 
ATOM      6  C   UNL     1     -10.782  -6.986   4.210  0.00  0.00    +0.116 A 
ATOM      7  N   UNL     1      -9.544  -6.810   4.791  0.00  0.00    -0.223 NA
ATOM      8  C   UNL     1      -8.382  -7.034   4.076  0.00  0.00    +0.220 A 
ATOM      9  N   UNL     1      -7.128  -6.855   4.638  0.00  0.00    -0.283 N 
ATOM     36  H   UNL     1      -6.294  -7.038   4.079  0.00  0.00    +0.155 HD
ATOM     37  N   UNL     1      -8.450  -7.431   2.788  0.00  0.00    -0.214 NA
BRANCH   4   3
ATOM      1  C   UNL     1     -10.655  -8.915  -1.404  0.00  0.00    +0.020 A 
ATOM      2  C   UNL     1     -10.767  -8.504  -0.023  0.00  0.00    +0.013 A 
ATOM      3  C   UNL     1      -9.595  -8.058   0.719  0.00  0.00    +0.019 A 
ATOM     38  C   UNL     1      -8.314  -8.040   0.030  0.00  0.00    +0.120 A 
ATOM     39  N   UNL     1      -8.236  -8.442  -1.300  0.00  0.00    -0.263 NA
ATOM     40  C   UNL     1      -9.357  -8.875  -2.024  0.00  0.00    +0.111 A 
ENDBRANCH   4   3
ENDBRANCH  10   9
BRANCH  12  13
ATOM     13  N   UNL     1      -8.000  -7.581   9.482  0.00  0.00    -0.281 N 
ATOM     14  C   UNL     1      -9.140  -7.311  10.221  0.00  0.00    +0.248 C 
ATOM     30  O   UNL     1      -9.746  -6.250  10.193  0.00  0.00    -0.270 OA
ATOM     31  H   UNL     1      -7.486  -8.423   9.742  0.00  0.00    +0.155 HD
BRANCH  14  15
ATOM     15  C   UNL     1      -9.676  -8.366  11.134  0.00  0.00    +0.037 A 
ATOM     16  C   UNL     1      -8.812  -9.426  11.660  0.00  0.00    +0.013 A 
ATOM     17  C   UNL     1      -9.358 -10.442  12.524  0.00  0.00    +0.005 A 
ATOM     18  C   UNL     1     -10.777 -10.401  12.870  0.00  0.00    -0.033 A 
ATOM     28  C   UNL     1     -11.610  -9.335  12.338  0.00  0.00    +0.005 A 
ATOM     29  C   UNL     1     -11.078  -8.338  11.490  0.00  0.00    +0.013 A 
BRANCH  18  19
ATOM     19  C   UNL     1     -11.450 -11.455  13.769  0.00  0.00    +0.119 C 
BRANCH  19  20
ATOM     20  N   UNL     1     -11.794 -12.767  13.144  0.00  0.00    -0.302 NA
ATOM     21  C   UNL     1     -10.560 -13.655  12.955  0.00  0.00    +0.066 C 
ATOM     22  C   UNL     1     -10.942 -15.032  12.321  0.00  0.00    -0.064 C 
ATOM     23  N   UNL     1     -11.650 -14.797  10.985  0.00  0.00    +0.379 N 
ATOM     24  C   UNL     1     -11.958 -16.091  10.359  0.00  0.00    -0.096 C 
ATOM     25  H   UNL     1     -10.939 -14.258  10.316  0.00  0.00    -0.082 HD
ATOM     26  C   UNL     1     -12.876 -13.913  11.164  0.00  0.00    -0.064 C 
ATOM     27  C   UNL     1     -12.491 -12.559  11.822  0.00  0.00    +0.066 C 
ENDBRANCH  19  20
ENDBRANCH  18  19
ENDBRANCH  14  15
ENDBRANCH  12  13
TORSDOF 6
ENDMDL
MODEL 5
REMARK VINA RESULT:      -8.3      1.873      2.529
REMARK  Name = C:\Users\Docking\Desktop\test protocol\1iep_ligandH.pdb
REMARK  8 active torsions:
REMARK  status: ('A' for Active; 'I' for Inactive)
REMARK    1  A    between atoms: _5  and  _11
REMARK    2  A    between atoms: _19  and  _21
REMARK    3  A    between atoms: _22  and  _66
REMARK    4  A    between atoms: _27  and  _30
REMARK    5  A    between atoms: _32  and  _33
REMARK    6  A    between atoms: _38  and  _43
REMARK    7  A    between atoms: _43  and  _46
REMARK    8  A    between atoms: _53  and  _55
REMARK                            x       y       z     vdW  Elec       q    Type
REMARK                         _______ _______ _______ _____ _____    ______ ____
ROOT
ATOM     10  C   UNL     1      -9.312  -6.961   5.166  0.00  0.00    +0.038 A 
ATOM     11  C   UNL     1      -8.847  -5.671   4.801  0.00  0.00    +0.047 A 
ATOM     12  C   UNL     1      -8.197  -5.440   3.521  0.00  0.00    +0.035 A 
ATOM     32  C   UNL     1      -8.039  -6.545   2.634  0.00  0.00    +0.024 A 
ATOM     33  C   UNL     1      -8.504  -7.862   2.989  0.00  0.00    +0.007 A 
ATOM     34  C   UNL     1      -9.144  -8.097   4.252  0.00  0.00    -0.029 A 
ATOM     35  C   UNL     1      -9.618  -9.532   4.582  0.00  0.00    +0.045 C 
ENDROOT
BRANCH  10   9
ATOM      4  C   UNL     1      -9.152  -7.550   9.927  0.00  0.00    +0.077 A 
ATOM      5  C   UNL     1      -7.718  -7.556   9.937  0.00  0.00    +0.048 A 
ATOM      6  C   UNL     1      -7.059  -7.412   8.696  0.00  0.00    +0.116 A 
ATOM      7  N   UNL     1      -7.791  -7.272   7.536  0.00  0.00    -0.223 NA
ATOM      8  C   UNL     1      -9.173  -7.272   7.561  0.00  0.00    +0.220 A 
ATOM      9  N   UNL     1      -9.929  -7.126   6.408  0.00  0.00    -0.283 N 
ATOM     36  H   UNL     1     -10.947  -7.138   6.467  0.00  0.00    +0.155 HD
ATOM     37  N   UNL     1      -9.826  -7.410   8.734  0.00  0.00    -0.214 NA
BRANCH   4   3
ATOM      1  C   UNL     1     -11.804  -8.801  12.516  0.00  0.00    +0.020 A 
ATOM      2  C   UNL     1     -11.021  -8.710  11.305  0.00  0.00    +0.013 A 
ATOM      3  C   UNL     1      -9.992  -7.688  11.159  0.00  0.00    +0.019 A 
ATOM     38  C   UNL     1      -9.778  -6.768  12.265  0.00  0.00    +0.120 A 
ATOM     39  N   UNL     1     -10.548  -6.879  13.418  0.00  0.00    -0.263 NA
ATOM     40  C   UNL     1     -11.542  -7.857  13.570  0.00  0.00    +0.111 A 
ENDBRANCH   4   3
ENDBRANCH  10   9
BRANCH  12  13
ATOM     13  N   UNL     1      -7.697  -4.155   3.099  0.00  0.00    -0.281 N 
ATOM     14  C   UNL     1      -7.944  -2.917   3.670  0.00  0.00    +0.248 C 
ATOM     30  O   UNL     1      -8.808  -2.701   4.506  0.00  0.00    -0.270 OA
ATOM     31  H   UNL     1      -7.088  -4.158   2.281  0.00  0.00    +0.155 HD
BRANCH  14  15
ATOM     15  C   UNL     1      -7.121  -1.746   3.238  0.00  0.00    +0.037 A 
ATOM     16  C   UNL     1      -6.993  -0.555   4.081  0.00  0.00    +0.013 A 
ATOM     17  C   UNL     1      -6.206   0.567   3.633  0.00  0.00    +0.005 A 
ATOM     18  C   UNL     1      -5.540   0.502   2.335  0.00  0.00    -0.033 A 
ATOM     28  C   UNL     1      -5.680  -0.694   1.521  0.00  0.00    +0.005 A 
ATOM     29  C   UNL     1      -6.451  -1.795   1.956  0.00  0.00    +0.013 A 
BRANCH  18  19
ATOM     19  C   UNL     1      -4.699   1.661   1.768  0.00  0.00    +0.119 C 
BRANCH  19  20
ATOM     20  N   UNL     1      -4.551   1.736   0.283  0.00  0.00    -0.302 NA
ATOM     21  C   UNL     1      -3.111   2.047  -0.136  0.00  0.00    +0.066 C 
ATOM     22  C   UNL     1      -2.970   2.100  -1.692  0.00  0.00    -0.064 C 
ATOM     23  N   UNL     1      -3.936   3.144  -2.254  0.00  0.00    +0.379 N 
ATOM     24  C   UNL     1      -3.764   3.238  -3.711  0.00  0.00    -0.096 C 
ATOM     25  H   UNL     1      -3.658   4.131  -1.816  0.00  0.00    -0.082 HD
ATOM     26  C   UNL     1      -5.369   2.844  -1.839  0.00  0.00    -0.064 C 
ATOM     27  C   UNL     1      -5.493   2.765  -0.292  0.00  0.00    +0.066 C 
ENDBRANCH  19  20
ENDBRANCH  18  19
ENDBRANCH  14  15
ENDBRANCH  12  13
TORSDOF 6
ENDMDL
