MODEL 1
REMARK VINA RESULT:      -8.7      0.000      0.000
REMARK  Name = C:\Users\Docking\Desktop\test protocol\1iep_ligandH.pdb
REMARK  8 active torsions:
REMARK  status: ('A' for Active; 'I' for Inactive)
REMARK    1  A    between atoms: _5  and  _11
REMARK    2  A    between atoms: _19  and  _21
REMARK    3  A    between atoms: _22  and  _66
REMARK    4  A    between atoms: _27  and  _30
REMARK    5  A    between atoms: _32  and  _33
REMARK    6  A    between atoms: _38  and  _43
REMARK    7  A    between atoms: _43  and  _46
REMARK    8  A    between atoms: _53  and  _55
REMARK                            x       y       z     vdW  Elec       q    Type
REMARK                         _______ _______ _______ _____ _____    ______ ____
ROOT
ATOM     10  C   UNL     1      -2.913  -3.604  -9.619  0.00  0.00    +0.038 A 
ATOM     11  C   UNL     1      -3.453  -3.749 -10.923  0.00  0.00    +0.047 A 
ATOM     12  C   UNL     1      -3.015  -2.896 -12.017  0.00  0.00    +0.035 A 
ATOM     32  C   UNL     1      -2.024  -1.908 -11.749  0.00  0.00    +0.024 A 
ATOM     33  C   UNL     1      -1.465  -1.746 -10.430  0.00  0.00    +0.007 A 
ATOM     34  C   UNL     1      -1.895  -2.583  -9.346  0.00  0.00    -0.029 A 
ATOM     35  C   UNL     1      -1.266  -2.361  -7.950  0.00  0.00    +0.045 C 
ENDROOT
BRANCH  10   9
ATOM      4  C   UNL     1      -2.675  -7.659  -7.063  0.00  0.00    +0.077 A 
ATOM      5  C   UNL     1      -1.564  -8.146  -7.828  0.00  0.00    +0.048 A 
ATOM      6  C   UNL     1      -1.088  -7.326  -8.876  0.00  0.00    +0.116 A 
ATOM      7  N   UNL     1      -1.687  -6.111  -9.130  0.00  0.00    -0.223 NA
ATOM      8  C   UNL     1      -2.757  -5.672  -8.373  0.00  0.00    +0.220 A 
ATOM      9  N   UNL     1      -3.369  -4.450  -8.606  0.00  0.00    -0.283 N 
ATOM     36  H   UNL     1      -4.162  -4.165  -8.030  0.00  0.00    +0.155 HD
ATOM     37  N   UNL     1      -3.231  -6.437  -7.368  0.00  0.00    -0.214 NA
BRANCH   4   3
ATOM      1  C   UNL     1      -4.818 -10.177  -4.972  0.00  0.00    +0.020 A 
ATOM      2  C   UNL     1      -4.255  -9.484  -6.108  0.00  0.00    +0.013 A 
ATOM      3  C   UNL     1      -3.288  -8.409  -5.922  0.00  0.00    +0.019 A 
ATOM     38  C   UNL     1      -2.908  -8.058  -4.562  0.00  0.00    +0.120 A 
ATOM     39  N   UNL     1      -3.467  -8.742  -3.487  0.00  0.00    -0.263 NA
ATOM     40  C   UNL     1      -4.400  -9.777  -3.654  0.00  0.00    +0.111 A 
ENDBRANCH   4   3
ENDBRANCH  10   9
BRANCH  12  13
ATOM     13  N   UNL     1      -3.533  -2.991 -13.360  0.00  0.00    -0.281 N 
ATOM     14  C   UNL     1      -4.365  -2.100 -14.017  0.00  0.00    +0.248 C 
ATOM     30  O   UNL     1      -4.966  -1.185 -13.472  0.00  0.00    -0.270 OA
ATOM     31  H   UNL     1      -3.252  -3.816 -13.890  0.00  0.00    +0.155 HD
BRANCH  14  15
ATOM     15  C   UNL     1      -4.570  -2.254 -15.489  0.00  0.00    +0.037 A 
ATOM     16  C   UNL     1      -5.612  -1.503 -16.194  0.00  0.00    +0.013 A 
ATOM     17  C   UNL     1      -5.800  -1.684 -17.612  0.00  0.00    +0.005 A 
ATOM     18  C   UNL     1      -4.942  -2.620 -18.334  0.00  0.00    -0.033 A 
ATOM     28  C   UNL     1      -3.914  -3.349 -17.611  0.00  0.00    +0.005 A 
ATOM     29  C   UNL     1      -3.727  -3.175 -16.221  0.00  0.00    +0.013 A 
BRANCH  18  19
ATOM     19  C   UNL     1      -5.086  -2.892 -19.844  0.00  0.00    +0.119 C 
BRANCH  19  20
ATOM     20  N   UNL     1      -5.444  -1.734 -20.716  0.00  0.00    -0.302 NA
ATOM     21  C   UNL     1      -5.778  -2.172 -22.144  0.00  0.00    +0.066 C 
ATOM     22  C   UNL     1      -6.173  -0.951 -23.037  0.00  0.00    -0.064 C 
ATOM     23  N   UNL     1      -5.031   0.067 -23.036  0.00  0.00    +0.379 N 
ATOM     24  C   UNL     1      -5.375   1.190 -23.921  0.00  0.00    -0.096 C 
ATOM     25  H   UNL     1      -4.131  -0.434 -23.460  0.00  0.00    -0.082 HD
ATOM     26  C   UNL     1      -4.691   0.507 -21.619  0.00  0.00    -0.064 C 
ATOM     27  C   UNL     1      -4.329  -0.717 -20.733  0.00  0.00    +0.066 C 
ENDBRANCH  19  20
ENDBRANCH  18  19
ENDBRANCH  14  15
ENDBRANCH  12  13
TORSDOF 6
ENDMDL
MODEL 2
REMARK VINA RESULT:      -8.6      4.662      7.473
REMARK  Name = C:\Users\Docking\Desktop\test protocol\1iep_ligandH.pdb
REMARK  8 active torsions:
REMARK  status: ('A' for Active; 'I' for Inactive)
REMARK    1  A    between atoms: _5  and  _11
REMARK    2  A    between atoms: _19  and  _21
REMARK    3  A    between atoms: _22  and  _66
REMARK    4  A    between atoms: _27  and  _30
REMARK    5  A    between atoms: _32  and  _33
REMARK    6  A    between atoms: _38  and  _43
REMARK    7  A    between atoms: _43  and  _46
REMARK    8  A    between atoms: _53  and  _55
REMARK                            x       y       z     vdW  Elec       q    Type
REMARK                         _______ _______ _______ _____ _____    ______ ____
ROOT
ATOM     10  C   UNL     1      -3.033  -2.537 -13.226  0.00  0.00    +0.038 A 
ATOM     11  C   UNL     1      -3.345  -2.456 -14.608  0.00  0.00    +0.047 A 
ATOM     12  C   UNL     1      -3.136  -3.590 -15.494  0.00  0.00    +0.035 A 
ATOM     32  C   UNL     1      -2.611  -4.794 -14.939  0.00  0.00    +0.024 A 
ATOM     33  C   UNL     1      -2.289  -4.894 -13.537  0.00  0.00    +0.007 A 
ATOM     34  C   UNL     1      -2.490  -3.777 -12.659  0.00  0.00    -0.029 A 
ATOM     35  C   UNL     1      -2.120  -3.938 -11.166  0.00  0.00    +0.045 C 
ENDROOT
BRANCH  10   9
ATOM      4  C   UNL     1      -1.649   1.647 -11.325  0.00  0.00    +0.077 A 
ATOM      5  C   UNL     1      -0.369   1.583 -11.968  0.00  0.00    +0.048 A 
ATOM      6  C   UNL     1      -0.103   0.454 -12.774  0.00  0.00    +0.116 A 
ATOM      7  N   UNL     1      -1.055  -0.533 -12.919  0.00  0.00    -0.223 NA
ATOM      8  C   UNL     1      -2.279  -0.441 -12.283  0.00  0.00    +0.220 A 
ATOM      9  N   UNL     1      -3.254  -1.417 -12.421  0.00  0.00    -0.283 N 
ATOM     36  H   UNL     1      -4.141  -1.317 -11.929  0.00  0.00    +0.155 HD
ATOM     37  N   UNL     1      -2.556   0.627 -11.507  0.00  0.00    -0.214 NA
BRANCH   4   3
ATOM      1  C   UNL     1      -1.822   4.255  -8.415  0.00  0.00    +0.020 A 
ATOM      2  C   UNL     1      -1.365   3.154  -9.231  0.00  0.00    +0.013 A 
ATOM      3  C   UNL     1      -2.080   2.778 -10.444  0.00  0.00    +0.019 A 
ATOM     38  C   UNL     1      -3.263   3.543 -10.806  0.00  0.00    +0.120 A 
ATOM     39  N   UNL     1      -3.681   4.598 -10.001  0.00  0.00    -0.263 NA
ATOM     40  C   UNL     1      -3.002   4.968  -8.830  0.00  0.00    +0.111 A 
ENDBRANCH   4   3
ENDBRANCH  10   9
BRANCH  12  13
ATOM     13  N   UNL     1      -3.426  -3.564 -16.906  0.00  0.00    -0.281 N 
ATOM     14  C   UNL     1      -4.620  -3.873 -17.536  0.00  0.00    +0.248 C 
ATOM     30  O   UNL     1      -5.565  -4.427 -16.994  0.00  0.00    -0.270 OA
ATOM     31  H   UNL     1      -2.657  -3.284 -17.515  0.00  0.00    +0.155 HD
BRANCH  14  15
ATOM     15  C   UNL     1      -4.784  -3.529 -18.982  0.00  0.00    +0.037 A 
ATOM     16  C   UNL     1      -4.902  -2.136 -19.423  0.00  0.00    +0.013 A 
ATOM     17  C   UNL     1      -5.077  -1.833 -20.821  0.00  0.00    +0.005 A 
ATOM     18  C   UNL     1      -5.132  -2.926 -21.789  0.00  0.00    -0.033 A 
ATOM     28  C   UNL     1      -5.007  -4.297 -21.325  0.00  0.00    +0.005 A 
ATOM     29  C   UNL     1      -4.837  -4.599 -19.955  0.00  0.00    +0.013 A 
BRANCH  18  19
ATOM     19  C   UNL     1      -5.337  -2.696 -23.299  0.00  0.00    +0.119 C 
BRANCH  19  20
ATOM     20  N   UNL     1      -6.713  -2.340 -23.756  0.00  0.00    -0.302 NA
ATOM     21  C   UNL     1      -7.389  -3.496 -24.498  0.00  0.00    +0.066 C 
ATOM     22  C   UNL     1      -8.836  -3.115 -24.949  0.00  0.00    -0.064 C 
ATOM     23  N   UNL     1      -8.780  -1.865 -25.830  0.00  0.00    +0.379 N 
ATOM     24  C   UNL     1     -10.133  -1.537 -26.303  0.00  0.00    -0.096 C 
ATOM     25  H   UNL     1      -8.159  -2.108 -26.723  0.00  0.00    -0.082 HD
ATOM     26  C   UNL     1      -8.107  -0.711 -25.100  0.00  0.00    -0.064 C 
ATOM     27  C   UNL     1      -6.681  -1.111 -24.630  0.00  0.00    +0.066 C 
ENDBRANCH  19  20
ENDBRANCH  18  19
ENDBRANCH  14  15
ENDBRANCH  12  13
TORSDOF 6
ENDMDL
MODEL 3
REMARK VINA RESULT:      -8.4      5.092     12.994
REMARK  Name = C:\Users\Docking\Desktop\test protocol\1iep_ligandH.pdb
REMARK  8 active torsions:
REMARK  status: ('A' for Active; 'I' for Inactive)
REMARK    1  A    between atoms: _5  and  _11
REMARK    2  A    between atoms: _19  and  _21
REMARK    3  A    between atoms: _22  and  _66
REMARK    4  A    between atoms: _27  and  _30
REMARK    5  A    between atoms: _32  and  _33
REMARK    6  A    between atoms: _38  and  _43
REMARK    7  A    between atoms: _43  and  _46
REMARK    8  A    between atoms: _53  and  _55
REMARK                            x       y       z     vdW  Elec       q    Type
REMARK                         _______ _______ _______ _____ _____    ______ ____
ROOT
ATOM     10  C   UNL     1      -1.794  -0.761 -11.055  0.00  0.00    +0.038 A 
ATOM     11  C   UNL     1      -2.062  -1.866 -10.207  0.00  0.00    +0.047 A 
ATOM     12  C   UNL     1      -1.105  -2.952 -10.062  0.00  0.00    +0.035 A 
ATOM     32  C   UNL     1       0.116  -2.879 -10.794  0.00  0.00    +0.024 A 
ATOM     33  C   UNL     1       0.404  -1.764 -11.660  0.00  0.00    +0.007 A 
ATOM     34  C   UNL     1      -0.537  -0.691 -11.809  0.00  0.00    -0.029 A 
ATOM     35  C   UNL     1      -0.178   0.477 -12.758  0.00  0.00    +0.045 C 
ENDROOT
BRANCH  10   9
ATOM      4  C   UNL     1      -6.146   0.850 -12.278  0.00  0.00    +0.077 A 
ATOM      5  C   UNL     1      -6.545  -0.432 -12.781  0.00  0.00    +0.048 A 
ATOM      6  C   UNL     1      -5.598  -1.479 -12.714  0.00  0.00    +0.116 A 
ATOM      7  N   UNL     1      -4.348  -1.248 -12.180  0.00  0.00    -0.223 NA
ATOM      8  C   UNL     1      -3.996   0.002 -11.705  0.00  0.00    +0.220 A 
ATOM      9  N   UNL     1      -2.747   0.254 -11.156  0.00  0.00    -0.283 N 
ATOM     36  H   UNL     1      -2.523   1.192 -10.824  0.00  0.00    +0.155 HD
ATOM     37  N   UNL     1      -4.882   1.018 -11.759  0.00  0.00    -0.214 NA
BRANCH   4   3
ATOM      1  C   UNL     1      -8.910   3.451 -13.228  0.00  0.00    +0.020 A 
ATOM      2  C   UNL     1      -8.077   2.271 -13.274  0.00  0.00    +0.013 A 
ATOM      3  C   UNL     1      -7.036   2.054 -12.277  0.00  0.00    +0.019 A 
ATOM     38  C   UNL     1      -6.864   3.057 -11.237  0.00  0.00    +0.120 A 
ATOM     39  N   UNL     1      -7.680   4.184 -11.218  0.00  0.00    -0.263 NA
ATOM     40  C   UNL     1      -8.683   4.405 -12.174  0.00  0.00    +0.111 A 
ENDBRANCH   4   3
ENDBRANCH  10   9
BRANCH  12  13
ATOM     13  N   UNL     1      -1.326  -4.104  -9.223  0.00  0.00    -0.281 N 
ATOM     14  C   UNL     1      -1.987  -5.278  -9.544  0.00  0.00    +0.248 C 
ATOM     30  O   UNL     1      -2.679  -5.431 -10.540  0.00  0.00    -0.270 OA
ATOM     31  H   UNL     1      -0.949  -4.046  -8.277  0.00  0.00    +0.155 HD
BRANCH  14  15
ATOM     15  C   UNL     1      -1.876  -6.446  -8.618  0.00  0.00    +0.037 A 
ATOM     16  C   UNL     1      -0.799  -7.429  -8.761  0.00  0.00    +0.013 A 
ATOM     17  C   UNL     1      -0.724  -8.556  -7.865  0.00  0.00    +0.005 A 
ATOM     18  C   UNL     1      -1.731  -8.704  -6.816  0.00  0.00    -0.033 A 
ATOM     28  C   UNL     1      -2.785  -7.712  -6.694  0.00  0.00    +0.005 A 
ATOM     29  C   UNL     1      -2.862  -6.607  -7.571  0.00  0.00    +0.013 A 
BRANCH  18  19
ATOM     19  C   UNL     1      -1.741  -9.887  -5.829  0.00  0.00    +0.119 C 
BRANCH  19  20
ATOM     20  N   UNL     1      -1.284  -9.616  -4.434  0.00  0.00    -0.302 NA
ATOM     21  C   UNL     1      -2.302  -8.786  -3.646  0.00  0.00    +0.066 C 
ATOM     22  C   UNL     1      -1.817  -8.532  -2.181  0.00  0.00    -0.064 C 
ATOM     23  N   UNL     1      -0.457  -7.834  -2.211  0.00  0.00    +0.379 N 
ATOM     24  C   UNL     1      -0.025  -7.541  -0.837  0.00  0.00    -0.096 C 
ATOM     25  H   UNL     1      -0.587  -6.861  -2.739  0.00  0.00    -0.082 HD
ATOM     26  C   UNL     1       0.561  -8.651  -2.995  0.00  0.00    -0.064 C 
ATOM     27  C   UNL     1       0.057  -8.923  -4.440  0.00  0.00    +0.066 C 
ENDBRANCH  19  20
ENDBRANCH  18  19
ENDBRANCH  14  15
ENDBRANCH  12  13
TORSDOF 6
ENDMDL
MODEL 4
REMARK VINA RESULT:      -8.4      3.224     12.423
REMARK  Name = C:\Users\Docking\Desktop\test protocol\1iep_ligandH.pdb
REMARK  8 active torsions:
REMARK  status: ('A' for Active; 'I' for Inactive)
REMARK    1  A    between atoms: _5  and  _11
REMARK    2  A    between atoms: _19  and  _21
REMARK    3  A    between atoms: _22  and  _66
REMARK    4  A    between atoms: _27  and  _30
REMARK    5  A    between atoms: _32  and  _33
REMARK    6  A    between atoms: _38  and  _43
REMARK    7  A    between atoms: _43  and  _46
REMARK    8  A    between atoms: _53  and  _55
REMARK                            x       y       z     vdW  Elec       q    Type
REMARK                         _______ _______ _______ _____ _____    ______ ____
ROOT
ATOM     10  C   UNL     1      -2.047  -1.259 -11.959  0.00  0.00    +0.038 A 
ATOM     11  C   UNL     1      -2.331  -2.455 -11.251  0.00  0.00    +0.047 A 
ATOM     12  C   UNL     1      -1.266  -3.254 -10.665  0.00  0.00    +0.035 A 
ATOM     32  C   UNL     1       0.078  -2.804 -10.817  0.00  0.00    +0.024 A 
ATOM     33  C   UNL     1       0.385  -1.592 -11.534  0.00  0.00    +0.007 A 
ATOM     34  C   UNL     1      -0.661  -0.801 -12.117  0.00  0.00    -0.029 A 
ATOM     35  C   UNL     1      -0.272   0.486 -12.881  0.00  0.00    +0.045 C 
ENDROOT
BRANCH  10   9
ATOM      4  C   UNL     1      -5.465  -0.580 -15.260  0.00  0.00    +0.077 A 
ATOM      5  C   UNL     1      -5.087  -1.763 -15.979  0.00  0.00    +0.048 A 
ATOM      6  C   UNL     1      -4.003  -2.513 -15.471  0.00  0.00    +0.116 A 
ATOM      7  N   UNL     1      -3.354  -2.104 -14.327  0.00  0.00    -0.223 NA
ATOM      8  C   UNL     1      -3.742  -0.957 -13.658  0.00  0.00    +0.220 A 
ATOM      9  N   UNL     1      -3.108  -0.531 -12.501  0.00  0.00    -0.283 N 
ATOM     36  H   UNL     1      -3.419   0.324 -12.041  0.00  0.00    +0.155 HD
ATOM     37  N   UNL     1      -4.773  -0.222 -14.124  0.00  0.00    -0.214 NA
BRANCH   4   3
ATOM      1  C   UNL     1      -8.489   1.898 -15.159  0.00  0.00    +0.020 A 
ATOM      2  C   UNL     1      -7.413   1.045 -14.711  0.00  0.00    +0.013 A 
ATOM      3  C   UNL     1      -6.591   0.316 -15.669  0.00  0.00    +0.019 A 
ATOM     38  C   UNL     1      -6.887   0.475 -17.085  0.00  0.00    +0.120 A 
ATOM     39  N   UNL     1      -7.931   1.302 -17.488  0.00  0.00    -0.263 NA
ATOM     40  C   UNL     1      -8.729   2.007 -16.574  0.00  0.00    +0.111 A 
ENDBRANCH   4   3
ENDBRANCH  10   9
BRANCH  12  13
ATOM     13  N   UNL     1      -1.494  -4.480  -9.942  0.00  0.00    -0.281 N 
ATOM     14  C   UNL     1      -1.992  -4.633  -8.658  0.00  0.00    +0.248 C 
ATOM     30  O   UNL     1      -2.118  -3.722  -7.853  0.00  0.00    -0.270 OA
ATOM     31  H   UNL     1      -1.260  -5.341 -10.436  0.00  0.00    +0.155 HD
BRANCH  14  15
ATOM     15  C   UNL     1      -2.395  -5.996  -8.197  0.00  0.00    +0.037 A 
ATOM     16  C   UNL     1      -2.965  -6.210  -6.864  0.00  0.00    +0.013 A 
ATOM     17  C   UNL     1      -3.329  -7.538  -6.438  0.00  0.00    +0.005 A 
ATOM     18  C   UNL     1      -3.127  -8.663  -7.347  0.00  0.00    -0.033 A 
ATOM     28  C   UNL     1      -2.565  -8.421  -8.666  0.00  0.00    +0.005 A 
ATOM     29  C   UNL     1      -2.206  -7.121  -9.087  0.00  0.00    +0.013 A 
BRANCH  18  19
ATOM     19  C   UNL     1      -3.467 -10.116  -6.969  0.00  0.00    +0.119 C 
BRANCH  19  20
ATOM     20  N   UNL     1      -4.858 -10.393  -6.501  0.00  0.00    -0.302 NA
ATOM     21  C   UNL     1      -5.901  -9.606  -7.301  0.00  0.00    +0.066 C 
ATOM     22  C   UNL     1      -7.352  -9.925  -6.814  0.00  0.00    -0.064 C 
ATOM     23  N   UNL     1      -7.466  -9.612  -5.321  0.00  0.00    +0.379 N 
ATOM     24  C   UNL     1      -8.844  -9.855  -4.873  0.00  0.00    -0.096 C 
ATOM     25  H   UNL     1      -7.253  -8.526  -5.187  0.00  0.00    -0.082 HD
ATOM     26  C   UNL     1      -6.431 -10.388  -4.519  0.00  0.00    -0.064 C 
ATOM     27  C   UNL     1      -4.995 -10.087  -5.030  0.00  0.00    +0.066 C 
ENDBRANCH  19  20
ENDBRANCH  18  19
ENDBRANCH  14  15
ENDBRANCH  12  13
TORSDOF 6
ENDMDL
MODEL 5
REMARK VINA RESULT:      -8.4      5.125     13.007
REMARK  Name = C:\Users\Docking\Desktop\test protocol\1iep_ligandH.pdb
REMARK  8 active torsions:
REMARK  status: ('A' for Active; 'I' for Inactive)
REMARK    1  A    between atoms: _5  and  _11
REMARK    2  A    between atoms: _19  and  _21
REMARK    3  A    between atoms: _22  and  _66
REMARK    4  A    between atoms: _27  and  _30
REMARK    5  A    between atoms: _32  and  _33
REMARK    6  A    between atoms: _38  and  _43
REMARK    7  A    between atoms: _43  and  _46
REMARK    8  A    between atoms: _53  and  _55
REMARK                            x       y       z     vdW  Elec       q    Type
REMARK                         _______ _______ _______ _____ _____    ______ ____
ROOT
ATOM     10  C   UNL     1      -1.780  -0.741 -11.078  0.00  0.00    +0.038 A 
ATOM     11  C   UNL     1      -2.048  -1.844 -10.228  0.00  0.00    +0.047 A 
ATOM     12  C   UNL     1      -1.099  -2.938 -10.094  0.00  0.00    +0.035 A 
ATOM     32  C   UNL     1       0.116  -2.874 -10.837  0.00  0.00    +0.024 A 
ATOM     33  C   UNL     1       0.404  -1.760 -11.706  0.00  0.00    +0.007 A 
ATOM     34  C   UNL     1      -0.530  -0.679 -11.845  0.00  0.00    -0.029 A 
ATOM     35  C   UNL     1      -0.172   0.486 -12.795  0.00  0.00    +0.045 C 
ENDROOT
BRANCH  10   9
ATOM      4  C   UNL     1      -6.129   0.908 -12.265  0.00  0.00    +0.077 A 
ATOM      5  C   UNL     1      -6.540  -0.370 -12.771  0.00  0.00    +0.048 A 
ATOM      6  C   UNL     1      -5.600  -1.424 -12.714  0.00  0.00    +0.116 A 
ATOM      7  N   UNL     1      -4.346  -1.204 -12.187  0.00  0.00    -0.223 NA
ATOM      8  C   UNL     1      -3.981   0.041 -11.710  0.00  0.00    +0.220 A 
ATOM      9  N   UNL     1      -2.727   0.282 -11.169  0.00  0.00    -0.283 N 
ATOM     36  H   UNL     1      -2.494   1.217 -10.834  0.00  0.00    +0.155 HD
ATOM     37  N   UNL     1      -4.859   1.064 -11.754  0.00  0.00    -0.214 NA
BRANCH   4   3
ATOM      1  C   UNL     1      -7.662   4.401 -11.400  0.00  0.00    +0.020 A 
ATOM      2  C   UNL     1      -6.782   3.256 -11.371  0.00  0.00    +0.013 A 
ATOM      3  C   UNL     1      -7.010   2.118 -12.253  0.00  0.00    +0.019 A 
ATOM     38  C   UNL     1      -8.147   2.171 -13.160  0.00  0.00    +0.120 A 
ATOM     39  N   UNL     1      -8.979   3.287 -13.164  0.00  0.00    -0.263 NA
ATOM     40  C   UNL     1      -8.770   4.386 -12.319  0.00  0.00    +0.111 A 
ENDBRANCH   4   3
ENDBRANCH  10   9
BRANCH  12  13
ATOM     13  N   UNL     1      -1.320  -4.089  -9.253  0.00  0.00    -0.281 N 
ATOM     14  C   UNL     1      -1.941  -5.281  -9.587  0.00  0.00    +0.248 C 
ATOM     30  O   UNL     1      -2.595  -5.458 -10.605  0.00  0.00    -0.270 OA
ATOM     31  H   UNL     1      -0.977  -4.015  -8.295  0.00  0.00    +0.155 HD
BRANCH  14  15
ATOM     15  C   UNL     1      -1.833  -6.439  -8.649  0.00  0.00    +0.037 A 
ATOM     16  C   UNL     1      -2.829  -6.660  -7.597  0.00  0.00    +0.013 A 
ATOM     17  C   UNL     1      -2.691  -7.776  -6.694  0.00  0.00    +0.005 A 
ATOM     18  C   UNL     1      -1.554  -8.680  -6.842  0.00  0.00    -0.033 A 
ATOM     28  C   UNL     1      -0.584  -8.441  -7.897  0.00  0.00    +0.005 A 
ATOM     29  C   UNL     1      -0.715  -7.348  -8.783  0.00  0.00    +0.013 A 
BRANCH  18  19
ATOM     19  C   UNL     1      -1.316  -9.884  -5.911  0.00  0.00    +0.119 C 
BRANCH  19  20
ATOM     20  N   UNL     1      -0.831  -9.594  -4.528  0.00  0.00    -0.302 NA
ATOM     21  C   UNL     1      -1.849  -8.782  -3.721  0.00  0.00    +0.066 C 
ATOM     22  C   UNL     1      -1.335  -8.507  -2.270  0.00  0.00    -0.064 C 
ATOM     23  N   UNL     1       0.008  -7.778  -2.338  0.00  0.00    +0.379 N 
ATOM     24  C   UNL     1       0.466  -7.467  -0.976  0.00  0.00    -0.096 C 
ATOM     25  H   UNL     1      -0.158  -6.812  -2.868  0.00  0.00    -0.082 HD
ATOM     26  C   UNL     1       1.025  -8.577  -3.141  0.00  0.00    -0.064 C 
ATOM     27  C   UNL     1       0.492  -8.870  -4.571  0.00  0.00    +0.066 C 
ENDBRANCH  19  20
ENDBRANCH  18  19
ENDBRANCH  14  15
ENDBRANCH  12  13
TORSDOF 6
ENDMDL
