MODEL 1
REMARK VINA RESULT:      -7.9      0.000      0.000
REMARK  Name = C:\Users\Docking\Desktop\test protocol\1iep_ligandH.pdb
REMARK  8 active torsions:
REMARK  status: ('A' for Active; 'I' for Inactive)
REMARK    1  A    between atoms: _5  and  _11
REMARK    2  A    between atoms: _19  and  _21
REMARK    3  A    between atoms: _22  and  _66
REMARK    4  A    between atoms: _27  and  _30
REMARK    5  A    between atoms: _32  and  _33
REMARK    6  A    between atoms: _38  and  _43
REMARK    7  A    between atoms: _43  and  _46
REMARK    8  A    between atoms: _53  and  _55
REMARK                            x       y       z     vdW  Elec       q    Type
REMARK                         _______ _______ _______ _____ _____    ______ ____
ROOT
ATOM     10  C   UNL     1     -11.942  42.805 -23.577  0.00  0.00    +0.038 A 
ATOM     11  C   UNL     1     -11.711  42.311 -24.886  0.00  0.00    +0.047 A 
ATOM     12  C   UNL     1     -12.076  43.089 -26.059  0.00  0.00    +0.035 A 
ATOM     32  C   UNL     1     -12.672  44.369 -25.862  0.00  0.00    +0.024 A 
ATOM     33  C   UNL     1     -12.915  44.886 -24.539  0.00  0.00    +0.007 A 
ATOM     34  C   UNL     1     -12.559  44.121 -23.377  0.00  0.00    -0.029 A 
ATOM     35  C   UNL     1     -12.849  44.723 -21.982  0.00  0.00    +0.045 C 
ENDROOT
BRANCH  10   9
ATOM      4  C   UNL     1     -12.916  39.565 -20.172  0.00  0.00    +0.077 A 
ATOM      5  C   UNL     1     -14.285  39.457 -20.584  0.00  0.00    +0.048 A 
ATOM      6  C   UNL     1     -14.701  40.257 -21.672  0.00  0.00    +0.116 A 
ATOM      7  N   UNL     1     -13.805  41.099 -22.294  0.00  0.00    -0.223 NA
ATOM      8  C   UNL     1     -12.491  41.181 -21.870  0.00  0.00    +0.220 A 
ATOM      9  N   UNL     1     -11.571  42.015 -22.486  0.00  0.00    -0.283 N 
ATOM     36  H   UNL     1     -10.613  42.053 -22.139  0.00  0.00    +0.155 HD
ATOM     37  N   UNL     1     -12.070  40.428 -20.832  0.00  0.00    -0.214 NA
BRANCH   4   3
ATOM      1  C   UNL     1     -12.172  36.730 -17.582  0.00  0.00    +0.020 A 
ATOM      2  C   UNL     1     -12.776  37.443 -18.683  0.00  0.00    +0.013 A 
ATOM      3  C   UNL     1     -12.325  38.783 -19.040  0.00  0.00    +0.019 A 
ATOM     38  C   UNL     1     -11.252  39.376 -18.257  0.00  0.00    +0.120 A 
ATOM     39  N   UNL     1     -10.690  38.666 -17.201  0.00  0.00    -0.263 NA
ATOM     40  C   UNL     1     -11.117  37.377 -16.847  0.00  0.00    +0.111 A 
ENDBRANCH   4   3
ENDBRANCH  10   9
BRANCH  12  13
ATOM     13  N   UNL     1     -11.873  42.636 -27.413  0.00  0.00    -0.281 N 
ATOM     14  C   UNL     1     -10.738  42.772 -28.196  0.00  0.00    +0.248 C 
ATOM     30  O   UNL     1      -9.793  43.497 -27.922  0.00  0.00    -0.270 OA
ATOM     31  H   UNL     1     -12.662  42.157 -27.847  0.00  0.00    +0.155 HD
BRANCH  14  15
ATOM     15  C   UNL     1     -10.646  42.003 -29.474  0.00  0.00    +0.037 A 
ATOM     16  C   UNL     1     -11.011  42.612 -30.755  0.00  0.00    +0.013 A 
ATOM     17  C   UNL     1     -10.929  41.842 -31.971  0.00  0.00    +0.005 A 
ATOM     18  C   UNL     1     -10.477  40.454 -31.911  0.00  0.00    -0.033 A 
ATOM     28  C   UNL     1     -10.116  39.877 -30.627  0.00  0.00    +0.005 A 
ATOM     29  C   UNL     1     -10.197  40.628 -29.433  0.00  0.00    +0.013 A 
BRANCH  18  19
ATOM     19  C   UNL     1     -10.379  39.552 -33.155  0.00  0.00    +0.119 C 
BRANCH  19  20
ATOM     20  N   UNL     1     -10.044  38.114 -32.932  0.00  0.00    -0.302 NA
ATOM     21  C   UNL     1      -9.184  37.542 -34.063  0.00  0.00    +0.066 C 
ATOM     22  C   UNL     1      -8.823  36.043 -33.803  0.00  0.00    -0.064 C 
ATOM     23  N   UNL     1     -10.110  35.233 -33.639  0.00  0.00    +0.379 N 
ATOM     24  C   UNL     1      -9.776  33.814 -33.451  0.00  0.00    -0.096 C 
ATOM     25  H   UNL     1     -10.689  35.322 -34.588  0.00  0.00    -0.082 HD
ATOM     26  C   UNL     1     -10.973  35.796 -32.518  0.00  0.00    -0.064 C 
ATOM     27  C   UNL     1     -11.301  37.294 -32.772  0.00  0.00    +0.066 C 
ENDBRANCH  19  20
ENDBRANCH  18  19
ENDBRANCH  14  15
ENDBRANCH  12  13
TORSDOF 6
ENDMDL
MODEL 2
REMARK VINA RESULT:      -7.7      3.059     11.006
REMARK  Name = C:\Users\Docking\Desktop\test protocol\1iep_ligandH.pdb
REMARK  8 active torsions:
REMARK  status: ('A' for Active; 'I' for Inactive)
REMARK    1  A    between atoms: _5  and  _11
REMARK    2  A    between atoms: _19  and  _21
REMARK    3  A    between atoms: _22  and  _66
REMARK    4  A    between atoms: _27  and  _30
REMARK    5  A    between atoms: _32  and  _33
REMARK    6  A    between atoms: _38  and  _43
REMARK    7  A    between atoms: _43  and  _46
REMARK    8  A    between atoms: _53  and  _55
REMARK                            x       y       z     vdW  Elec       q    Type
REMARK                         _______ _______ _______ _____ _____    ______ ____
ROOT
ATOM     10  C   UNL     1     -12.370  42.644 -25.069  0.00  0.00    +0.038 A 
ATOM     11  C   UNL     1     -12.411  41.581 -24.131  0.00  0.00    +0.047 A 
ATOM     12  C   UNL     1     -12.641  41.835 -22.717  0.00  0.00    +0.035 A 
ATOM     32  C   UNL     1     -12.827  43.183 -22.294  0.00  0.00    +0.024 A 
ATOM     33  C   UNL     1     -12.787  44.275 -23.234  0.00  0.00    +0.007 A 
ATOM     34  C   UNL     1     -12.559  44.031 -24.630  0.00  0.00    -0.029 A 
ATOM     35  C   UNL     1     -12.520  45.241 -25.592  0.00  0.00    +0.045 C 
ENDROOT
BRANCH  10   9
ATOM      4  C   UNL     1     -10.034  40.310 -28.553  0.00  0.00    +0.077 A 
ATOM      5  C   UNL     1      -9.169  39.655 -27.615  0.00  0.00    +0.048 A 
ATOM      6  C   UNL     1      -9.353  39.951 -26.246  0.00  0.00    +0.116 A 
ATOM      7  N   UNL     1     -10.333  40.838 -25.855  0.00  0.00    -0.223 NA
ATOM      8  C   UNL     1     -11.149  41.454 -26.786  0.00  0.00    +0.220 A 
ATOM      9  N   UNL     1     -12.146  42.343 -26.415  0.00  0.00    -0.283 N 
ATOM     36  H   UNL     1     -12.723  42.782 -27.132  0.00  0.00    +0.155 HD
ATOM     37  N   UNL     1     -10.993  41.189 -28.100  0.00  0.00    -0.214 NA
BRANCH   4   3
ATOM      1  C   UNL     1      -9.431  38.710 -32.071  0.00  0.00    +0.020 A 
ATOM      2  C   UNL     1      -9.477  38.864 -30.635  0.00  0.00    +0.013 A 
ATOM      3  C   UNL     1      -9.965  40.098 -30.034  0.00  0.00    +0.019 A 
ATOM     38  C   UNL     1     -10.405  41.165 -30.920  0.00  0.00    +0.120 A 
ATOM     39  N   UNL     1     -10.349  40.989 -32.299  0.00  0.00    -0.263 NA
ATOM     40  C   UNL     1      -9.879  39.806 -32.889  0.00  0.00    +0.111 A 
ENDBRANCH   4   3
ENDBRANCH  10   9
BRANCH  12  13
ATOM     13  N   UNL     1     -12.686  40.797 -21.717  0.00  0.00    -0.281 N 
ATOM     14  C   UNL     1     -13.767  40.012 -21.352  0.00  0.00    +0.248 C 
ATOM     30  O   UNL     1     -14.922  40.229 -21.684  0.00  0.00    -0.270 OA
ATOM     31  H   UNL     1     -11.814  40.621 -21.217  0.00  0.00    +0.155 HD
BRANCH  14  15
ATOM     15  C   UNL     1     -13.532  38.821 -20.480  0.00  0.00    +0.037 A 
ATOM     16  C   UNL     1     -12.638  38.891 -19.322  0.00  0.00    +0.013 A 
ATOM     17  C   UNL     1     -12.416  37.722 -18.507  0.00  0.00    +0.005 A 
ATOM     18  C   UNL     1     -13.092  36.473 -18.848  0.00  0.00    -0.033 A 
ATOM     28  C   UNL     1     -13.978  36.433 -20.000  0.00  0.00    +0.005 A 
ATOM     29  C   UNL     1     -14.197  37.576 -20.801  0.00  0.00    +0.013 A 
BRANCH  18  19
ATOM     19  C   UNL     1     -12.897  35.171 -18.048  0.00  0.00    +0.119 C 
BRANCH  19  20
ATOM     20  N   UNL     1     -12.002  34.132 -18.639  0.00  0.00    -0.302 NA
ATOM     21  C   UNL     1     -12.655  32.747 -18.644  0.00  0.00    +0.066 C 
ATOM     22  C   UNL     1     -11.713  31.677 -19.286  0.00  0.00    -0.064 C 
ATOM     23  N   UNL     1     -10.386  31.647 -18.526  0.00  0.00    +0.379 N 
ATOM     24  C   UNL     1      -9.521  30.602 -19.091  0.00  0.00    -0.096 C 
ATOM     25  H   UNL     1     -10.608  31.369 -17.469  0.00  0.00    -0.082 HD
ATOM     26  C   UNL     1      -9.732  33.022 -18.514  0.00  0.00    -0.064 C 
ATOM     27  C   UNL     1     -10.687  34.083 -17.901  0.00  0.00    +0.066 C 
ENDBRANCH  19  20
ENDBRANCH  18  19
ENDBRANCH  14  15
ENDBRANCH  12  13
TORSDOF 6
ENDMDL
MODEL 3
REMARK VINA RESULT:      -7.7      4.718     12.591
REMARK  Name = C:\Users\Docking\Desktop\test protocol\1iep_ligandH.pdb
REMARK  8 active torsions:
REMARK  status: ('A' for Active; 'I' for Inactive)
REMARK    1  A    between atoms: _5  and  _11
REMARK    2  A    between atoms: _19  and  _21
REMARK    3  A    between atoms: _22  and  _66
REMARK    4  A    between atoms: _27  and  _30
REMARK    5  A    between atoms: _32  and  _33
REMARK    6  A    between atoms: _38  and  _43
REMARK    7  A    between atoms: _43  and  _46
REMARK    8  A    between atoms: _53  and  _55
REMARK                            x       y       z     vdW  Elec       q    Type
REMARK                         _______ _______ _______ _____ _____    ______ ____
ROOT
ATOM     10  C   UNL     1     -10.525  32.471 -33.611  0.00  0.00    +0.038 A 
ATOM     11  C   UNL     1     -10.506  33.723 -32.943  0.00  0.00    +0.047 A 
ATOM     12  C   UNL     1      -9.406  34.657 -33.127  0.00  0.00    +0.035 A 
ATOM     32  C   UNL     1      -8.343  34.284 -34.000  0.00  0.00    +0.024 A 
ATOM     33  C   UNL     1      -8.345  33.016 -34.685  0.00  0.00    +0.007 A 
ATOM     34  C   UNL     1      -9.427  32.090 -34.506  0.00  0.00    -0.029 A 
ATOM     35  C   UNL     1      -9.374  30.741 -35.261  0.00  0.00    +0.045 C 
ENDROOT
BRANCH  10   9
ATOM      4  C   UNL     1     -12.810  29.086 -31.089  0.00  0.00    +0.077 A 
ATOM      5  C   UNL     1     -11.747  29.000 -30.129  0.00  0.00    +0.048 A 
ATOM      6  C   UNL     1     -10.627  29.839 -30.325  0.00  0.00    +0.116 A 
ATOM      7  N   UNL     1     -10.584  30.696 -31.403  0.00  0.00    -0.223 NA
ATOM      8  C   UNL     1     -11.625  30.753 -32.311  0.00  0.00    +0.220 A 
ATOM      9  N   UNL     1     -11.607  31.613 -33.398  0.00  0.00    -0.283 N 
ATOM     36  H   UNL     1     -12.391  31.620 -34.049  0.00  0.00    +0.155 HD
ATOM     37  N   UNL     1     -12.705  29.961 -32.147  0.00  0.00    -0.214 NA
BRANCH   4   3
ATOM      1  C   UNL     1     -16.108  27.215 -32.052  0.00  0.00    +0.020 A 
ATOM      2  C   UNL     1     -14.910  28.014 -32.175  0.00  0.00    +0.013 A 
ATOM      3  C   UNL     1     -14.061  28.266 -31.018  0.00  0.00    +0.019 A 
ATOM     38  C   UNL     1     -14.453  27.690 -29.741  0.00  0.00    +0.120 A 
ATOM     39  N   UNL     1     -15.613  26.926 -29.652  0.00  0.00    -0.263 NA
ATOM     40  C   UNL     1     -16.439  26.678 -30.758  0.00  0.00    +0.111 A 
ENDBRANCH   4   3
ENDBRANCH  10   9
BRANCH  12  13
ATOM     13  N   UNL     1      -9.328  35.938 -32.470  0.00  0.00    -0.281 N 
ATOM     14  C   UNL     1     -10.133  37.048 -32.670  0.00  0.00    +0.248 C 
ATOM     30  O   UNL     1     -10.912  37.178 -33.603  0.00  0.00    -0.270 OA
ATOM     31  H   UNL     1      -8.590  36.039 -31.773  0.00  0.00    +0.155 HD
BRANCH  14  15
ATOM     15  C   UNL     1     -10.050  38.184 -31.702  0.00  0.00    +0.037 A 
ATOM     16  C   UNL     1      -9.459  38.008 -30.373  0.00  0.00    +0.013 A 
ATOM     17  C   UNL     1      -9.407  39.115 -29.452  0.00  0.00    +0.005 A 
ATOM     18  C   UNL     1      -9.946  40.411 -29.859  0.00  0.00    -0.033 A 
ATOM     28  C   UNL     1     -10.522  40.559 -31.186  0.00  0.00    +0.005 A 
ATOM     29  C   UNL     1     -10.576  39.475 -32.090  0.00  0.00    +0.013 A 
BRANCH  18  19
ATOM     19  C   UNL     1      -9.952  41.642 -28.934  0.00  0.00    +0.119 C 
BRANCH  19  20
ATOM     20  N   UNL     1     -10.812  41.578 -27.715  0.00  0.00    -0.302 NA
ATOM     21  C   UNL     1     -11.490  42.918 -27.419  0.00  0.00    +0.066 C 
ATOM     22  C   UNL     1     -12.404  42.826 -26.153  0.00  0.00    -0.064 C 
ATOM     23  N   UNL     1     -11.568  42.366 -24.957  0.00  0.00    +0.379 N 
ATOM     24  C   UNL     1     -12.411  42.335 -23.753  0.00  0.00    -0.096 C 
ATOM     25  H   UNL     1     -10.769  43.125 -24.791  0.00  0.00    -0.082 HD
ATOM     26  C   UNL     1     -10.888  41.035 -25.244  0.00  0.00    -0.064 C 
ATOM     27  C   UNL     1     -10.006  41.129 -26.521  0.00  0.00    +0.066 C 
ENDBRANCH  19  20
ENDBRANCH  18  19
ENDBRANCH  14  15
ENDBRANCH  12  13
TORSDOF 6
ENDMDL
MODEL 4
REMARK VINA RESULT:      -7.6      2.513     11.355
REMARK  Name = C:\Users\Docking\Desktop\test protocol\1iep_ligandH.pdb
REMARK  8 active torsions:
REMARK  status: ('A' for Active; 'I' for Inactive)
REMARK    1  A    between atoms: _5  and  _11
REMARK    2  A    between atoms: _19  and  _21
REMARK    3  A    between atoms: _22  and  _66
REMARK    4  A    between atoms: _27  and  _30
REMARK    5  A    between atoms: _32  and  _33
REMARK    6  A    between atoms: _38  and  _43
REMARK    7  A    between atoms: _43  and  _46
REMARK    8  A    between atoms: _53  and  _55
REMARK                            x       y       z     vdW  Elec       q    Type
REMARK                         _______ _______ _______ _____ _____    ______ ____
ROOT
ATOM     10  C   UNL     1     -11.006  42.310 -27.187  0.00  0.00    +0.038 A 
ATOM     11  C   UNL     1     -11.361  41.585 -26.021  0.00  0.00    +0.047 A 
ATOM     12  C   UNL     1     -11.206  42.167 -24.697  0.00  0.00    +0.035 A 
ATOM     32  C   UNL     1     -10.688  43.492 -24.598  0.00  0.00    +0.024 A 
ATOM     33  C   UNL     1     -10.321  44.242 -25.773  0.00  0.00    +0.007 A 
ATOM     34  C   UNL     1     -10.469  43.672 -27.081  0.00  0.00    -0.029 A 
ATOM     35  C   UNL     1     -10.053  44.520 -28.306  0.00  0.00    +0.045 C 
ENDROOT
BRANCH  10   9
ATOM      4  C   UNL     1      -9.654  39.236 -30.617  0.00  0.00    +0.077 A 
ATOM      5  C   UNL     1      -8.497  38.826 -29.876  0.00  0.00    +0.048 A 
ATOM      6  C   UNL     1      -8.281  39.435 -28.620  0.00  0.00    +0.116 A 
ATOM      7  N   UNL     1      -9.165  40.383 -28.149  0.00  0.00    -0.223 NA
ATOM      8  C   UNL     1     -10.270  40.757 -28.890  0.00  0.00    +0.220 A 
ATOM      9  N   UNL     1     -11.176  41.702 -28.433  0.00  0.00    -0.283 N 
ATOM     36  H   UNL     1     -11.975  41.956 -29.013  0.00  0.00    +0.155 HD
ATOM     37  N   UNL     1     -10.497  40.191 -30.094  0.00  0.00    -0.214 NA
BRANCH   4   3
ATOM      1  C   UNL     1     -11.413  37.220 -33.471  0.00  0.00    +0.020 A 
ATOM      2  C   UNL     1     -11.100  37.724 -32.153  0.00  0.00    +0.013 A 
ATOM      3  C   UNL     1     -10.019  38.682 -31.959  0.00  0.00    +0.019 A 
ATOM     38  C   UNL     1      -9.269  39.114 -33.129  0.00  0.00    +0.120 A 
ATOM     39  N   UNL     1      -9.591  38.610 -34.385  0.00  0.00    -0.263 NA
ATOM     40  C   UNL     1     -10.628  37.686 -34.583  0.00  0.00    +0.111 A 
ENDBRANCH   4   3
ENDBRANCH  10   9
BRANCH  12  13
ATOM     13  N   UNL     1     -11.542  41.477 -23.477  0.00  0.00    -0.281 N 
ATOM     14  C   UNL     1     -12.631  41.693 -22.648  0.00  0.00    +0.248 C 
ATOM     30  O   UNL     1     -13.372  42.663 -22.719  0.00  0.00    -0.270 OA
ATOM     31  H   UNL     1     -10.899  40.739 -23.189  0.00  0.00    +0.155 HD
BRANCH  14  15
ATOM     15  C   UNL     1     -12.933  40.695 -21.577  0.00  0.00    +0.037 A 
ATOM     16  C   UNL     1     -12.055  40.539 -20.415  0.00  0.00    +0.013 A 
ATOM     17  C   UNL     1     -12.360  39.557 -19.404  0.00  0.00    +0.005 A 
ATOM     18  C   UNL     1     -13.551  38.724 -19.552  0.00  0.00    -0.033 A 
ATOM     28  C   UNL     1     -14.407  38.903 -20.713  0.00  0.00    +0.005 A 
ATOM     29  C   UNL     1     -14.111  39.864 -21.705  0.00  0.00    +0.013 A 
BRANCH  18  19
ATOM     19  C   UNL     1     -13.942  37.637 -18.534  0.00  0.00    +0.119 C 
BRANCH  19  20
ATOM     20  N   UNL     1     -13.778  36.214 -18.956  0.00  0.00    -0.302 NA
ATOM     21  C   UNL     1     -14.969  35.348 -18.533  0.00  0.00    +0.066 C 
ATOM     22  C   UNL     1     -14.791  33.867 -19.003  0.00  0.00    -0.064 C 
ATOM     23  N   UNL     1     -13.486  33.308 -18.435  0.00  0.00    +0.379 N 
ATOM     24  C   UNL     1     -13.344  31.898 -18.827  0.00  0.00    -0.096 C 
ATOM     25  H   UNL     1     -13.558  33.345 -17.323  0.00  0.00    -0.082 HD
ATOM     26  C   UNL     1     -12.297  34.164 -18.849  0.00  0.00    -0.064 C 
ATOM     27  C   UNL     1     -12.497  35.640 -18.403  0.00  0.00    +0.066 C 
ENDBRANCH  19  20
ENDBRANCH  18  19
ENDBRANCH  14  15
ENDBRANCH  12  13
TORSDOF 6
ENDMDL
MODEL 5
REMARK VINA RESULT:      -7.5      4.095     11.140
REMARK  Name = C:\Users\Docking\Desktop\test protocol\1iep_ligandH.pdb
REMARK  8 active torsions:
REMARK  status: ('A' for Active; 'I' for Inactive)
REMARK    1  A    between atoms: _5  and  _11
REMARK    2  A    between atoms: _19  and  _21
REMARK    3  A    between atoms: _22  and  _66
REMARK    4  A    between atoms: _27  and  _30
REMARK    5  A    between atoms: _32  and  _33
REMARK    6  A    between atoms: _38  and  _43
REMARK    7  A    between atoms: _43  and  _46
REMARK    8  A    between atoms: _53  and  _55
REMARK                            x       y       z     vdW  Elec       q    Type
REMARK                         _______ _______ _______ _____ _____    ______ ____
ROOT
ATOM     10  C   UNL     1     -11.565  42.267 -24.296  0.00  0.00    +0.038 A 
ATOM     11  C   UNL     1     -12.295  41.285 -23.579  0.00  0.00    +0.047 A 
ATOM     12  C   UNL     1     -12.323  41.281 -22.124  0.00  0.00    +0.035 A 
ATOM     32  C   UNL     1     -11.598  42.294 -21.432  0.00  0.00    +0.024 A 
ATOM     33  C   UNL     1     -10.850  43.300 -22.145  0.00  0.00    +0.007 A 
ATOM     34  C   UNL     1     -10.817  43.307 -23.579  0.00  0.00    -0.029 A 
ATOM     35  C   UNL     1      -9.993  44.405 -24.291  0.00  0.00    +0.045 C 
ENDROOT
BRANCH  10   9
ATOM      4  C   UNL     1     -10.056  40.469 -28.482  0.00  0.00    +0.077 A 
ATOM      5  C   UNL     1      -9.157  39.557 -27.835  0.00  0.00    +0.048 A 
ATOM      6  C   UNL     1      -9.108  39.588 -26.423  0.00  0.00    +0.116 A 
ATOM      7  N   UNL     1      -9.903  40.468 -25.721  0.00  0.00    -0.223 NA
ATOM      8  C   UNL     1     -10.758  41.335 -26.377  0.00  0.00    +0.220 A 
ATOM      9  N   UNL     1     -11.572  42.224 -25.692  0.00  0.00    -0.283 N 
ATOM     36  H   UNL     1     -12.183  42.852 -26.213  0.00  0.00    +0.155 HD
ATOM     37  N   UNL     1     -10.822  41.327 -27.725  0.00  0.00    -0.214 NA
BRANCH   4   3
ATOM      1  C   UNL     1     -10.271  39.534 -32.275  0.00  0.00    +0.020 A 
ATOM      2  C   UNL     1     -10.099  39.398 -30.846  0.00  0.00    +0.013 A 
ATOM      3  C   UNL     1     -10.224  40.554 -29.968  0.00  0.00    +0.019 A 
ATOM     38  C   UNL     1     -10.525  41.843 -30.570  0.00  0.00    +0.120 A 
ATOM     39  N   UNL     1     -10.684  41.944 -31.949  0.00  0.00    -0.263 NA
ATOM     40  C   UNL     1     -10.565  40.839 -32.805  0.00  0.00    +0.111 A 
ENDBRANCH   4   3
ENDBRANCH  10   9
BRANCH  12  13
ATOM     13  N   UNL     1     -13.040  40.305 -21.342  0.00  0.00    -0.281 N 
ATOM     14  C   UNL     1     -14.411  40.133 -21.243  0.00  0.00    +0.248 C 
ATOM     30  O   UNL     1     -15.239  40.935 -21.649  0.00  0.00    -0.270 OA
ATOM     31  H   UNL     1     -12.467  39.662 -20.796  0.00  0.00    +0.155 HD
BRANCH  14  15
ATOM     15  C   UNL     1     -14.938  38.899 -20.586  0.00  0.00    +0.037 A 
ATOM     16  C   UNL     1     -14.186  37.642 -20.615  0.00  0.00    +0.013 A 
ATOM     17  C   UNL     1     -14.726  36.461 -19.988  0.00  0.00    +0.005 A 
ATOM     18  C   UNL     1     -16.026  36.533 -19.325  0.00  0.00    -0.033 A 
ATOM     28  C   UNL     1     -16.748  37.794 -19.307  0.00  0.00    +0.005 A 
ATOM     29  C   UNL     1     -16.223  38.953 -19.921  0.00  0.00    +0.013 A 
BRANCH  18  19
ATOM     19  C   UNL     1     -16.688  35.318 -18.648  0.00  0.00    +0.119 C 
BRANCH  19  20
ATOM     20  N   UNL     1     -17.541  34.441 -19.503  0.00  0.00    -0.302 NA
ATOM     21  C   UNL     1     -16.892  34.153 -20.859  0.00  0.00    +0.066 C 
ATOM     22  C   UNL     1     -17.788  33.215 -21.732  0.00  0.00    -0.064 C 
ATOM     23  N   UNL     1     -19.165  33.856 -21.915  0.00  0.00    +0.379 N 
ATOM     24  C   UNL     1     -19.991  33.004 -22.784  0.00  0.00    -0.096 C 
ATOM     25  H   UNL     1     -19.017  34.829 -22.438  0.00  0.00    -0.082 HD
ATOM     26  C   UNL     1     -19.817  34.148 -20.571  0.00  0.00    -0.064 C 
ATOM     27  C   UNL     1     -18.905  35.057 -19.701  0.00  0.00    +0.066 C 
ENDBRANCH  19  20
ENDBRANCH  18  19
ENDBRANCH  14  15
ENDBRANCH  12  13
TORSDOF 6
ENDMDL
