MODEL 1
REMARK VINA RESULT:      -8.3      0.000      0.000
REMARK  Name = C:\Users\Docking\Desktop\test protocol\1iep_ligandH.pdb
REMARK  8 active torsions:
REMARK  status: ('A' for Active; 'I' for Inactive)
REMARK    1  A    between atoms: _5  and  _11
REMARK    2  A    between atoms: _19  and  _21
REMARK    3  A    between atoms: _22  and  _66
REMARK    4  A    between atoms: _27  and  _30
REMARK    5  A    between atoms: _32  and  _33
REMARK    6  A    between atoms: _38  and  _43
REMARK    7  A    between atoms: _43  and  _46
REMARK    8  A    between atoms: _53  and  _55
REMARK                            x       y       z     vdW  Elec       q    Type
REMARK                         _______ _______ _______ _____ _____    ______ ____
ROOT
ATOM     10  C   UNL     1      23.278  -3.906  17.369  0.00  0.00    +0.038 A 
ATOM     11  C   UNL     1      24.115  -3.031  18.107  0.00  0.00    +0.047 A 
ATOM     12  C   UNL     1      23.619  -2.326  19.279  0.00  0.00    +0.035 A 
ATOM     32  C   UNL     1      22.266  -2.539  19.673  0.00  0.00    +0.024 A 
ATOM     33  C   UNL     1      21.401  -3.424  18.934  0.00  0.00    +0.007 A 
ATOM     34  C   UNL     1      21.884  -4.120  17.775  0.00  0.00    -0.029 A 
ATOM     35  C   UNL     1      20.910  -5.053  17.017  0.00  0.00    +0.045 C 
ENDROOT
BRANCH  10   9
ATOM      4  C   UNL     1      25.356  -7.685  15.261  0.00  0.00    +0.077 A 
ATOM      5  C   UNL     1      25.420  -8.413  16.496  0.00  0.00    +0.048 A 
ATOM      6  C   UNL     1      24.914  -7.777  17.651  0.00  0.00    +0.116 A 
ATOM      7  N   UNL     1      24.385  -6.507  17.567  0.00  0.00    -0.223 NA
ATOM      8  C   UNL     1      24.341  -5.832  16.361  0.00  0.00    +0.220 A 
ATOM      9  N   UNL     1      23.806  -4.557  16.252  0.00  0.00    -0.283 N 
ATOM     36  H   UNL     1      23.799  -4.090  15.345  0.00  0.00    +0.155 HD
ATOM     37  N   UNL     1      24.819  -6.417  15.243  0.00  0.00    -0.214 NA
BRANCH   4   3
ATOM      1  C   UNL     1      27.673  -8.722  12.285  0.00  0.00    +0.020 A 
ATOM      2  C   UNL     1      27.251  -8.188  13.559  0.00  0.00    +0.013 A 
ATOM      3  C   UNL     1      25.848  -8.223  13.954  0.00  0.00    +0.019 A 
ATOM     38  C   UNL     1      24.891  -8.812  13.029  0.00  0.00    +0.120 A 
ATOM     39  N   UNL     1      25.327  -9.317  11.808  0.00  0.00    -0.263 NA
ATOM     40  C   UNL     1      26.674  -9.287  11.417  0.00  0.00    +0.111 A 
ENDBRANCH   4   3
ENDBRANCH  10   9
BRANCH  12  13
ATOM     13  N   UNL     1      24.420  -1.418  20.063  0.00  0.00    -0.281 N 
ATOM     14  C   UNL     1      24.021  -0.241  20.674  0.00  0.00    +0.248 C 
ATOM     30  O   UNL     1      22.958   0.324  20.459  0.00  0.00    -0.270 OA
ATOM     31  H   UNL     1      25.400  -1.675  20.182  0.00  0.00    +0.155 HD
BRANCH  14  15
ATOM     15  C   UNL     1      24.941   0.412  21.654  0.00  0.00    +0.037 A 
ATOM     16  C   UNL     1      25.678   1.631  21.310  0.00  0.00    +0.013 A 
ATOM     17  C   UNL     1      26.572   2.230  22.269  0.00  0.00    +0.005 A 
ATOM     18  C   UNL     1      26.732   1.612  23.583  0.00  0.00    -0.033 A 
ATOM     28  C   UNL     1      25.985   0.406  23.899  0.00  0.00    +0.005 A 
ATOM     29  C   UNL     1      25.109  -0.185  22.962  0.00  0.00    +0.013 A 
BRANCH  18  19
ATOM     19  C   UNL     1      27.680   2.171  24.660  0.00  0.00    +0.119 C 
BRANCH  19  20
ATOM     20  N   UNL     1      28.567   1.196  25.362  0.00  0.00    -0.302 NA
ATOM     21  C   UNL     1      29.274   1.827  26.566  0.00  0.00    +0.066 C 
ATOM     22  C   UNL     1      30.180   0.788  27.303  0.00  0.00    -0.064 C 
ATOM     23  N   UNL     1      31.199   0.214  26.316  0.00  0.00    +0.379 N 
ATOM     24  C   UNL     1      32.090  -0.721  27.019  0.00  0.00    -0.096 C 
ATOM     25  H   UNL     1      31.822   1.060  25.944  0.00  0.00    -0.082 HD
ATOM     26  C   UNL     1      30.505  -0.413  25.115  0.00  0.00    -0.064 C 
ATOM     27  C   UNL     1      29.584   0.620  24.408  0.00  0.00    +0.066 C 
ENDBRANCH  19  20
ENDBRANCH  18  19
ENDBRANCH  14  15
ENDBRANCH  12  13
TORSDOF 6
ENDMDL
MODEL 2
REMARK VINA RESULT:      -8.2      9.944     14.837
REMARK  Name = C:\Users\Docking\Desktop\test protocol\1iep_ligandH.pdb
REMARK  8 active torsions:
REMARK  status: ('A' for Active; 'I' for Inactive)
REMARK    1  A    between atoms: _5  and  _11
REMARK    2  A    between atoms: _19  and  _21
REMARK    3  A    between atoms: _22  and  _66
REMARK    4  A    between atoms: _27  and  _30
REMARK    5  A    between atoms: _32  and  _33
REMARK    6  A    between atoms: _38  and  _43
REMARK    7  A    between atoms: _43  and  _46
REMARK    8  A    between atoms: _53  and  _55
REMARK                            x       y       z     vdW  Elec       q    Type
REMARK                         _______ _______ _______ _____ _____    ______ ____
ROOT
ATOM     10  C   UNL     1      12.331  -0.424  20.971  0.00  0.00    +0.038 A 
ATOM     11  C   UNL     1      13.744  -0.544  20.982  0.00  0.00    +0.047 A 
ATOM     12  C   UNL     1      14.389  -1.848  20.952  0.00  0.00    +0.035 A 
ATOM     32  C   UNL     1      13.563  -3.009  20.907  0.00  0.00    +0.024 A 
ATOM     33  C   UNL     1      12.125  -2.905  20.897  0.00  0.00    +0.007 A 
ATOM     34  C   UNL     1      11.483  -1.622  20.929  0.00  0.00    -0.029 A 
ATOM     35  C   UNL     1       9.938  -1.571  20.922  0.00  0.00    +0.045 C 
ENDROOT
BRANCH  10   9
ATOM      4  C   UNL     1      10.439   3.312  23.316  0.00  0.00    +0.077 A 
ATOM      5  C   UNL     1      10.564   2.655  24.585  0.00  0.00    +0.048 A 
ATOM      6  C   UNL     1      11.114   1.353  24.590  0.00  0.00    +0.116 A 
ATOM      7  N   UNL     1      11.506   0.763  23.408  0.00  0.00    -0.223 NA
ATOM      8  C   UNL     1      11.370   1.424  22.202  0.00  0.00    +0.220 A 
ATOM      9  N   UNL     1      11.765   0.853  21.002  0.00  0.00    -0.283 N 
ATOM     36  H   UNL     1      11.641   1.370  20.132  0.00  0.00    +0.155 HD
ATOM     37  N   UNL     1      10.847   2.667  22.170  0.00  0.00    -0.214 NA
BRANCH   4   3
ATOM      1  C   UNL     1       8.085   6.432  23.479  0.00  0.00    +0.020 A 
ATOM      2  C   UNL     1       8.578   5.087  23.669  0.00  0.00    +0.013 A 
ATOM      3  C   UNL     1       9.880   4.691  23.148  0.00  0.00    +0.019 A 
ATOM     38  C   UNL     1      10.665   5.687  22.434  0.00  0.00    +0.120 A 
ATOM     39  N   UNL     1      10.164   6.974  22.266  0.00  0.00    -0.263 NA
ATOM     40  C   UNL     1       8.912   7.367  22.761  0.00  0.00    +0.111 A 
ENDBRANCH   4   3
ENDBRANCH  10   9
BRANCH  12  13
ATOM     13  N   UNL     1      15.818  -2.032  20.969  0.00  0.00    -0.281 N 
ATOM     14  C   UNL     1      16.587  -2.640  21.949  0.00  0.00    +0.248 C 
ATOM     30  O   UNL     1      16.181  -2.929  23.065  0.00  0.00    -0.270 OA
ATOM     31  H   UNL     1      16.326  -1.670  20.162  0.00  0.00    +0.155 HD
BRANCH  14  15
ATOM     15  C   UNL     1      18.016  -2.959  21.651  0.00  0.00    +0.037 A 
ATOM     16  C   UNL     1      18.379  -3.908  20.595  0.00  0.00    +0.013 A 
ATOM     17  C   UNL     1      19.765  -4.210  20.339  0.00  0.00    +0.005 A 
ATOM     18  C   UNL     1      20.799  -3.562  21.141  0.00  0.00    -0.033 A 
ATOM     28  C   UNL     1      20.412  -2.620  22.179  0.00  0.00    +0.005 A 
ATOM     29  C   UNL     1      19.054  -2.322  22.433  0.00  0.00    +0.013 A 
BRANCH  18  19
ATOM     19  C   UNL     1      22.302  -3.841  20.952  0.00  0.00    +0.119 C 
BRANCH  19  20
ATOM     20  N   UNL     1      22.867  -3.646  19.583  0.00  0.00    -0.302 NA
ATOM     21  C   UNL     1      23.939  -4.688  19.251  0.00  0.00    +0.066 C 
ATOM     22  C   UNL     1      24.503  -4.483  17.807  0.00  0.00    -0.064 C 
ATOM     23  N   UNL     1      25.065  -3.067  17.678  0.00  0.00    +0.379 N 
ATOM     24  C   UNL     1      25.648  -2.890  16.340  0.00  0.00    -0.096 C 
ATOM     25  H   UNL     1      25.888  -2.961  18.423  0.00  0.00    -0.082 HD
ATOM     26  C   UNL     1      24.006  -2.025  18.010  0.00  0.00    -0.064 C 
ATOM     27  C   UNL     1      23.432  -2.255  19.435  0.00  0.00    +0.066 C 
ENDBRANCH  19  20
ENDBRANCH  18  19
ENDBRANCH  14  15
ENDBRANCH  12  13
TORSDOF 6
ENDMDL
MODEL 3
REMARK VINA RESULT:      -8.2      8.422     14.323
REMARK  Name = C:\Users\Docking\Desktop\test protocol\1iep_ligandH.pdb
REMARK  8 active torsions:
REMARK  status: ('A' for Active; 'I' for Inactive)
REMARK    1  A    between atoms: _5  and  _11
REMARK    2  A    between atoms: _19  and  _21
REMARK    3  A    between atoms: _22  and  _66
REMARK    4  A    between atoms: _27  and  _30
REMARK    5  A    between atoms: _32  and  _33
REMARK    6  A    between atoms: _38  and  _43
REMARK    7  A    between atoms: _43  and  _46
REMARK    8  A    between atoms: _53  and  _55
REMARK                            x       y       z     vdW  Elec       q    Type
REMARK                         _______ _______ _______ _____ _____    ______ ____
ROOT
ATOM     10  C   UNL     1      19.709  -2.697  23.339  0.00  0.00    +0.038 A 
ATOM     11  C   UNL     1      18.472  -2.044  23.101  0.00  0.00    +0.047 A 
ATOM     12  C   UNL     1      17.254  -2.804  22.865  0.00  0.00    +0.035 A 
ATOM     32  C   UNL     1      17.331  -4.227  22.881  0.00  0.00    +0.024 A 
ATOM     33  C   UNL     1      18.580  -4.906  23.120  0.00  0.00    +0.007 A 
ATOM     34  C   UNL     1      19.786  -4.163  23.351  0.00  0.00    -0.029 A 
ATOM     35  C   UNL     1      21.098  -4.944  23.596  0.00  0.00    +0.045 C 
ENDROOT
BRANCH  10   9
ATOM      4  C   UNL     1      23.387  -0.039  21.775  0.00  0.00    +0.077 A 
ATOM      5  C   UNL     1      23.025  -0.240  20.401  0.00  0.00    +0.048 A 
ATOM      6  C   UNL     1      21.890  -1.040  20.140  0.00  0.00    +0.116 A 
ATOM      7  N   UNL     1      21.177  -1.592  21.182  0.00  0.00    -0.223 NA
ATOM      8  C   UNL     1      21.554  -1.379  22.495  0.00  0.00    +0.220 A 
ATOM      9  N   UNL     1      20.848  -1.918  23.559  0.00  0.00    -0.283 N 
ATOM     36  H   UNL     1      21.162  -1.745  24.513  0.00  0.00    +0.155 HD
ATOM     37  N   UNL     1      22.635  -0.621  22.771  0.00  0.00    -0.214 NA
BRANCH   4   3
ATOM      1  C   UNL     1      26.455   2.388  21.769  0.00  0.00    +0.020 A 
ATOM      2  C   UNL     1      25.332   1.612  21.295  0.00  0.00    +0.013 A 
ATOM      3  C   UNL     1      24.559   0.784  22.212  0.00  0.00    +0.019 A 
ATOM     38  C   UNL     1      24.950   0.765  23.614  0.00  0.00    +0.120 A 
ATOM     39  N   UNL     1      26.037   1.521  24.041  0.00  0.00    -0.263 NA
ATOM     40  C   UNL     1      26.789   2.320  23.167  0.00  0.00    +0.111 A 
ENDBRANCH   4   3
ENDBRANCH  10   9
BRANCH  12  13
ATOM     13  N   UNL     1      15.972  -2.196  22.610  0.00  0.00    -0.281 N 
ATOM     14  C   UNL     1      15.280  -2.139  21.411  0.00  0.00    +0.248 C 
ATOM     30  O   UNL     1      15.759  -2.418  20.322  0.00  0.00    -0.270 OA
ATOM     31  H   UNL     1      15.519  -1.755  23.410  0.00  0.00    +0.155 HD
BRANCH  14  15
ATOM     15  C   UNL     1      13.853  -1.695  21.421  0.00  0.00    +0.037 A 
ATOM     16  C   UNL     1      13.364  -0.687  20.477  0.00  0.00    +0.013 A 
ATOM     17  C   UNL     1      11.986  -0.264  20.520  0.00  0.00    +0.005 A 
ATOM     18  C   UNL     1      11.087  -0.851  21.511  0.00  0.00    -0.033 A 
ATOM     28  C   UNL     1      11.597  -1.852  22.432  0.00  0.00    +0.005 A 
ATOM     29  C   UNL     1      12.947  -2.269  22.394  0.00  0.00    +0.013 A 
BRANCH  18  19
ATOM     19  C   UNL     1       9.608  -0.443  21.642  0.00  0.00    +0.119 C 
BRANCH  19  20
ATOM     20  N   UNL     1       8.583  -1.438  21.205  0.00  0.00    -0.302 NA
ATOM     21  C   UNL     1       8.311  -2.493  22.280  0.00  0.00    +0.066 C 
ATOM     22  C   UNL     1       7.220  -3.512  21.814  0.00  0.00    -0.064 C 
ATOM     23  N   UNL     1       7.668  -4.172  20.509  0.00  0.00    +0.379 N 
ATOM     24  C   UNL     1       6.672  -5.173  20.099  0.00  0.00    -0.096 C 
ATOM     25  H   UNL     1       8.623  -4.709  20.712  0.00  0.00    -0.082 HD
ATOM     26  C   UNL     1       7.944  -3.130  19.435  0.00  0.00    -0.064 C 
ATOM     27  C   UNL     1       9.007  -2.105  19.919  0.00  0.00    +0.066 C 
ENDBRANCH  19  20
ENDBRANCH  18  19
ENDBRANCH  14  15
ENDBRANCH  12  13
TORSDOF 6
ENDMDL
MODEL 4
REMARK VINA RESULT:      -8.0      9.825     14.417
REMARK  Name = C:\Users\Docking\Desktop\test protocol\1iep_ligandH.pdb
REMARK  8 active torsions:
REMARK  status: ('A' for Active; 'I' for Inactive)
REMARK    1  A    between atoms: _5  and  _11
REMARK    2  A    between atoms: _19  and  _21
REMARK    3  A    between atoms: _22  and  _66
REMARK    4  A    between atoms: _27  and  _30
REMARK    5  A    between atoms: _32  and  _33
REMARK    6  A    between atoms: _38  and  _43
REMARK    7  A    between atoms: _43  and  _46
REMARK    8  A    between atoms: _53  and  _55
REMARK                            x       y       z     vdW  Elec       q    Type
REMARK                         _______ _______ _______ _____ _____    ______ ____
ROOT
ATOM     10  C   UNL     1      12.304  -0.731  21.161  0.00  0.00    +0.038 A 
ATOM     11  C   UNL     1      13.704  -0.956  21.191  0.00  0.00    +0.047 A 
ATOM     12  C   UNL     1      14.248  -2.303  21.267  0.00  0.00    +0.035 A 
ATOM     32  C   UNL     1      13.336  -3.398  21.308  0.00  0.00    +0.024 A 
ATOM     33  C   UNL     1      11.910  -3.187  21.280  0.00  0.00    +0.007 A 
ATOM     34  C   UNL     1      11.368  -1.861  21.207  0.00  0.00    -0.029 A 
ATOM     35  C   UNL     1       9.831  -1.693  21.186  0.00  0.00    +0.045 C 
ENDROOT
BRANCH  10   9
ATOM      4  C   UNL     1      10.541   3.253  23.175  0.00  0.00    +0.077 A 
ATOM      5  C   UNL     1      10.524   2.657  24.480  0.00  0.00    +0.048 A 
ATOM      6  C   UNL     1      10.971   1.321  24.589  0.00  0.00    +0.116 A 
ATOM      7  N   UNL     1      11.400   0.642  23.470  0.00  0.00    -0.223 NA
ATOM      8  C   UNL     1      11.402   1.245  22.226  0.00  0.00    +0.220 A 
ATOM      9  N   UNL     1      11.837   0.584  21.088  0.00  0.00    -0.283 N 
ATOM     36  H   UNL     1      11.816   1.062  20.187  0.00  0.00    +0.155 HD
ATOM     37  N   UNL     1      10.979   2.520  22.095  0.00  0.00    -0.214 NA
BRANCH   4   3
ATOM      1  C   UNL     1       8.506   6.594  23.157  0.00  0.00    +0.020 A 
ATOM      2  C   UNL     1       8.884   5.231  23.455  0.00  0.00    +0.013 A 
ATOM      3  C   UNL     1      10.103   4.658  22.899  0.00  0.00    +0.019 A 
ATOM     38  C   UNL     1      10.926   5.497  22.041  0.00  0.00    +0.120 A 
ATOM     39  N   UNL     1      10.536   6.805  21.770  0.00  0.00    -0.263 NA
ATOM     40  C   UNL     1       9.364   7.367  22.298  0.00  0.00    +0.111 A 
ENDBRANCH   4   3
ENDBRANCH  10   9
BRANCH  12  13
ATOM     13  N   UNL     1      15.660  -2.593  21.309  0.00  0.00    -0.281 N 
ATOM     14  C   UNL     1      16.460  -3.079  20.288  0.00  0.00    +0.248 C 
ATOM     30  O   UNL     1      16.037  -3.542  19.239  0.00  0.00    -0.270 OA
ATOM     31  H   UNL     1      16.126  -2.419  22.200  0.00  0.00    +0.155 HD
BRANCH  14  15
ATOM     15  C   UNL     1      17.944  -3.061  20.463  0.00  0.00    +0.037 A 
ATOM     16  C   UNL     1      18.553  -2.728  21.754  0.00  0.00    +0.013 A 
ATOM     17  C   UNL     1      19.988  -2.701  21.891  0.00  0.00    +0.005 A 
ATOM     18  C   UNL     1      20.824  -3.010  20.733  0.00  0.00    -0.033 A 
ATOM     28  C   UNL     1      20.193  -3.342  19.466  0.00  0.00    +0.005 A 
ATOM     29  C   UNL     1      18.787  -3.368  19.328  0.00  0.00    +0.013 A 
BRANCH  18  19
ATOM     19  C   UNL     1      22.363  -2.985  20.782  0.00  0.00    +0.119 C 
BRANCH  19  20
ATOM     20  N   UNL     1      23.012  -1.723  21.249  0.00  0.00    -0.302 NA
ATOM     21  C   UNL     1      22.689  -0.539  20.333  0.00  0.00    +0.066 C 
ATOM     22  C   UNL     1      23.357   0.778  20.848  0.00  0.00    -0.064 C 
ATOM     23  N   UNL     1      24.869   0.571  20.954  0.00  0.00    +0.379 N 
ATOM     24  C   UNL     1      25.506   1.825  21.383  0.00  0.00    -0.096 C 
ATOM     25  H   UNL     1      25.249   0.329  19.935  0.00  0.00    -0.082 HD
ATOM     26  C   UNL     1      25.199  -0.606  21.861  0.00  0.00    -0.064 C 
ATOM     27  C   UNL     1      24.506  -1.903  21.357  0.00  0.00    +0.066 C 
ENDBRANCH  19  20
ENDBRANCH  18  19
ENDBRANCH  14  15
ENDBRANCH  12  13
TORSDOF 6
ENDMDL
MODEL 5
REMARK VINA RESULT:      -7.9      2.631      4.859
REMARK  Name = C:\Users\Docking\Desktop\test protocol\1iep_ligandH.pdb
REMARK  8 active torsions:
REMARK  status: ('A' for Active; 'I' for Inactive)
REMARK    1  A    between atoms: _5  and  _11
REMARK    2  A    between atoms: _19  and  _21
REMARK    3  A    between atoms: _22  and  _66
REMARK    4  A    between atoms: _27  and  _30
REMARK    5  A    between atoms: _32  and  _33
REMARK    6  A    between atoms: _38  and  _43
REMARK    7  A    between atoms: _43  and  _46
REMARK    8  A    between atoms: _53  and  _55
REMARK                            x       y       z     vdW  Elec       q    Type
REMARK                         _______ _______ _______ _____ _____    ______ ____
ROOT
ATOM     10  C   UNL     1      24.051  -1.474  20.817  0.00  0.00    +0.038 A 
ATOM     11  C   UNL     1      25.222  -1.251  21.586  0.00  0.00    +0.047 A 
ATOM     12  C   UNL     1      25.540   0.069  22.107  0.00  0.00    +0.035 A 
ATOM     32  C   UNL     1      24.642   1.141  21.827  0.00  0.00    +0.024 A 
ATOM     33  C   UNL     1      23.448   0.932  21.046  0.00  0.00    +0.007 A 
ATOM     34  C   UNL     1      23.130  -0.368  20.528  0.00  0.00    -0.029 A 
ATOM     35  C   UNL     1      21.840  -0.531  19.692  0.00  0.00    +0.045 C 
ENDROOT
BRANCH  10   9
ATOM      4  C   UNL     1      24.195  -4.827  17.387  0.00  0.00    +0.077 A 
ATOM      5  C   UNL     1      24.810  -3.929  16.452  0.00  0.00    +0.048 A 
ATOM      6  C   UNL     1      25.066  -2.611  16.892  0.00  0.00    +0.116 A 
ATOM      7  N   UNL     1      24.728  -2.230  18.172  0.00  0.00    -0.223 NA
ATOM      8  C   UNL     1      24.135  -3.121  19.048  0.00  0.00    +0.220 A 
ATOM      9  N   UNL     1      23.794  -2.762  20.343  0.00  0.00    -0.283 N 
ATOM     36  H   UNL     1      23.351  -3.446  20.956  0.00  0.00    +0.155 HD
ATOM     37  N   UNL     1      23.879  -4.385  18.652  0.00  0.00    -0.214 NA
BRANCH   4   3
ATOM      1  C   UNL     1      23.953  -8.295  15.594  0.00  0.00    +0.020 A 
ATOM      2  C   UNL     1      24.299  -6.916  15.849  0.00  0.00    +0.013 A 
ATOM      3  C   UNL     1      23.865  -6.253  17.072  0.00  0.00    +0.019 A 
ATOM     38  C   UNL     1      23.077  -7.021  18.025  0.00  0.00    +0.120 A 
ATOM     39  N   UNL     1      22.758  -8.347  17.752  0.00  0.00    -0.263 NA
ATOM     40  C   UNL     1      23.168  -8.995  16.577  0.00  0.00    +0.111 A 
ENDBRANCH   4   3
ENDBRANCH  10   9
BRANCH  12  13
ATOM     13  N   UNL     1      26.718   0.358  22.887  0.00  0.00    -0.281 N 
ATOM     14  C   UNL     1      26.815   0.509  24.260  0.00  0.00    +0.248 C 
ATOM     30  O   UNL     1      25.858   0.631  25.011  0.00  0.00    -0.270 OA
ATOM     31  H   UNL     1      27.587   0.463  22.362  0.00  0.00    +0.155 HD
BRANCH  14  15
ATOM     15  C   UNL     1      28.170   0.544  24.890  0.00  0.00    +0.037 A 
ATOM     16  C   UNL     1      29.102  -0.578  24.749  0.00  0.00    +0.013 A 
ATOM     17  C   UNL     1      30.397  -0.525  25.381  0.00  0.00    +0.005 A 
ATOM     18  C   UNL     1      30.767   0.655  26.158  0.00  0.00    -0.033 A 
ATOM     28  C   UNL     1      29.825   1.755  26.277  0.00  0.00    +0.005 A 
ATOM     29  C   UNL     1      28.555   1.707  25.660  0.00  0.00    +0.013 A 
BRANCH  18  19
ATOM     19  C   UNL     1      32.119   0.788  26.884  0.00  0.00    +0.119 C 
BRANCH  19  20
ATOM     20  N   UNL     1      33.346   0.861  26.036  0.00  0.00    -0.302 NA
ATOM     21  C   UNL     1      33.122   1.697  24.773  0.00  0.00    +0.066 C 
ATOM     22  C   UNL     1      34.422   1.781  23.908  0.00  0.00    -0.064 C 
ATOM     23  N   UNL     1      34.885   0.369  23.548  0.00  0.00    +0.379 N 
ATOM     24  C   UNL     1      36.074   0.446  22.687  0.00  0.00    -0.096 C 
ATOM     25  H   UNL     1      34.071  -0.113  22.958  0.00  0.00    -0.082 HD
ATOM     26  C   UNL     1      35.107  -0.470  24.799  0.00  0.00    -0.064 C 
ATOM     27  C   UNL     1      33.818  -0.524  25.665  0.00  0.00    +0.066 C 
ENDBRANCH  19  20
ENDBRANCH  18  19
ENDBRANCH  14  15
ENDBRANCH  12  13
TORSDOF 6
ENDMDL
