MODEL 1
REMARK VINA RESULT:      -7.9      0.000      0.000
REMARK  Name = C:\Users\Docking\Desktop\test protocol\1iep_ligandH.pdb
REMARK  8 active torsions:
REMARK  status: ('A' for Active; 'I' for Inactive)
REMARK    1  A    between atoms: _5  and  _11
REMARK    2  A    between atoms: _19  and  _21
REMARK    3  A    between atoms: _22  and  _66
REMARK    4  A    between atoms: _27  and  _30
REMARK    5  A    between atoms: _32  and  _33
REMARK    6  A    between atoms: _38  and  _43
REMARK    7  A    between atoms: _43  and  _46
REMARK    8  A    between atoms: _53  and  _55
REMARK                            x       y       z     vdW  Elec       q    Type
REMARK                         _______ _______ _______ _____ _____    ______ ____
ROOT
ATOM     10  C   UNL     1      -9.360  -9.587 -16.279  0.00  0.00    +0.038 A 
ATOM     11  C   UNL     1      -9.766  -9.691 -14.924  0.00  0.00    +0.047 A 
ATOM     12  C   UNL     1      -8.957  -9.133 -13.851  0.00  0.00    +0.035 A 
ATOM     32  C   UNL     1      -7.742  -8.473 -14.195  0.00  0.00    +0.024 A 
ATOM     33  C   UNL     1      -7.314  -8.359 -15.567  0.00  0.00    +0.007 A 
ATOM     34  C   UNL     1      -8.106  -8.910 -16.629  0.00  0.00    -0.029 A 
ATOM     35  C   UNL     1      -7.595  -8.764 -18.081  0.00  0.00    +0.045 C 
ENDROOT
BRANCH  10   9
ATOM      4  C   UNL     1     -10.798 -13.262 -19.011  0.00  0.00    +0.077 A 
ATOM      5  C   UNL     1      -9.825 -14.147 -18.437  0.00  0.00    +0.048 A 
ATOM      6  C   UNL     1      -8.969 -13.615 -17.447  0.00  0.00    +0.116 A 
ATOM      7  N   UNL     1      -9.086 -12.295 -17.066  0.00  0.00    -0.223 NA
ATOM      8  C   UNL     1     -10.035 -11.469 -17.641  0.00  0.00    +0.220 A 
ATOM      9  N   UNL     1     -10.175 -10.141 -17.269  0.00  0.00    -0.283 N 
ATOM     36  H   UNL     1     -10.882  -9.563 -17.722  0.00  0.00    +0.155 HD
ATOM     37  N   UNL     1     -10.863 -11.953 -18.590  0.00  0.00    -0.214 NA
BRANCH   4   3
ATOM      1  C   UNL     1     -12.355 -14.654 -22.319  0.00  0.00    +0.020 A 
ATOM      2  C   UNL     1     -11.370 -14.270 -21.334  0.00  0.00    +0.013 A 
ATOM      3  C   UNL     1     -11.776 -13.677 -20.066  0.00  0.00    +0.019 A 
ATOM     38  C   UNL     1     -13.198 -13.485 -19.823  0.00  0.00    +0.120 A 
ATOM     39  N   UNL     1     -14.124 -13.863 -20.791  0.00  0.00    -0.263 NA
ATOM     40  C   UNL     1     -13.744 -14.433 -22.016  0.00  0.00    +0.111 A 
ENDBRANCH   4   3
ENDBRANCH  10   9
BRANCH  12  13
ATOM     13  N   UNL     1      -9.314  -9.215 -12.457  0.00  0.00    -0.281 N 
ATOM     14  C   UNL     1      -9.511  -8.173 -11.565  0.00  0.00    +0.248 C 
ATOM     30  O   UNL     1      -9.198  -7.011 -11.780  0.00  0.00    -0.270 OA
ATOM     31  H   UNL     1      -9.438 -10.155 -12.081  0.00  0.00    +0.155 HD
BRANCH  14  15
ATOM     15  C   UNL     1     -10.130  -8.466 -10.237  0.00  0.00    +0.037 A 
ATOM     16  C   UNL     1     -10.398  -9.842  -9.810  0.00  0.00    +0.013 A 
ATOM     17  C   UNL     1     -11.012 -10.095  -8.531  0.00  0.00    +0.005 A 
ATOM     18  C   UNL     1     -11.362  -8.969  -7.668  0.00  0.00    -0.033 A 
ATOM     28  C   UNL     1     -11.080  -7.615  -8.114  0.00  0.00    +0.005 A 
ATOM     29  C   UNL     1     -10.479  -7.362  -9.368  0.00  0.00    +0.013 A 
BRANCH  18  19
ATOM     19  C   UNL     1     -12.039  -9.146  -6.296  0.00  0.00    +0.119 C 
BRANCH  19  20
ATOM     20  N   UNL     1     -11.170  -9.045  -5.086  0.00  0.00    -0.302 NA
ATOM     21  C   UNL     1     -10.307 -10.296  -4.893  0.00  0.00    +0.066 C 
ATOM     22  C   UNL     1      -9.387 -10.164  -3.636  0.00  0.00    -0.064 C 
ATOM     23  N   UNL     1     -10.252  -9.905  -2.400  0.00  0.00    +0.379 N 
ATOM     24  C   UNL     1      -9.395  -9.839  -1.207  0.00  0.00    -0.096 C 
ATOM     25  H   UNL     1     -10.935 -10.777  -2.277  0.00  0.00    -0.082 HD
ATOM     26  C   UNL     1     -11.114  -8.665  -2.585  0.00  0.00    -0.064 C 
ATOM     27  C   UNL     1     -12.003  -8.794  -3.854  0.00  0.00    +0.066 C 
ENDBRANCH  19  20
ENDBRANCH  18  19
ENDBRANCH  14  15
ENDBRANCH  12  13
TORSDOF 6
ENDMDL
MODEL 2
REMARK VINA RESULT:      -7.6     21.893     25.476
REMARK  Name = C:\Users\Docking\Desktop\test protocol\1iep_ligandH.pdb
REMARK  8 active torsions:
REMARK  status: ('A' for Active; 'I' for Inactive)
REMARK    1  A    between atoms: _5  and  _11
REMARK    2  A    between atoms: _19  and  _21
REMARK    3  A    between atoms: _22  and  _66
REMARK    4  A    between atoms: _27  and  _30
REMARK    5  A    between atoms: _32  and  _33
REMARK    6  A    between atoms: _38  and  _43
REMARK    7  A    between atoms: _43  and  _46
REMARK    8  A    between atoms: _53  and  _55
REMARK                            x       y       z     vdW  Elec       q    Type
REMARK                         _______ _______ _______ _____ _____    ______ ____
ROOT
ATOM     10  C   UNL     1     -13.128  10.227 -12.147  0.00  0.00    +0.038 A 
ATOM     11  C   UNL     1     -12.768  11.514 -11.671  0.00  0.00    +0.047 A 
ATOM     12  C   UNL     1     -11.562  12.179 -12.139  0.00  0.00    +0.035 A 
ATOM     32  C   UNL     1     -10.747  11.505 -13.095  0.00  0.00    +0.024 A 
ATOM     33  C   UNL     1     -11.097  10.196 -13.588  0.00  0.00    +0.007 A 
ATOM     34  C   UNL     1     -12.284   9.534 -13.128  0.00  0.00    -0.029 A 
ATOM     35  C   UNL     1     -12.608   8.129 -13.687  0.00  0.00    +0.045 C 
ENDROOT
BRANCH  10   9
ATOM      4  C   UNL     1     -15.770   8.349  -8.607  0.00  0.00    +0.077 A 
ATOM      5  C   UNL     1     -14.723   8.538  -7.645  0.00  0.00    +0.048 A 
ATOM      6  C   UNL     1     -13.517   9.116  -8.103  0.00  0.00    +0.116 A 
ATOM      7  N   UNL     1     -13.381   9.473  -9.427  0.00  0.00    -0.223 NA
ATOM      8  C   UNL     1     -14.410   9.275 -10.329  0.00  0.00    +0.220 A 
ATOM      9  N   UNL     1     -14.297   9.635 -11.663  0.00  0.00    -0.283 N 
ATOM     36  H   UNL     1     -15.077   9.466 -12.299  0.00  0.00    +0.155 HD
ATOM     37  N   UNL     1     -15.570   8.724  -9.917  0.00  0.00    -0.214 NA
BRANCH   4   3
ATOM      1  C   UNL     1     -18.617   6.298  -6.878  0.00  0.00    +0.020 A 
ATOM      2  C   UNL     1     -17.309   6.844  -7.156  0.00  0.00    +0.013 A 
ATOM      3  C   UNL     1     -17.103   7.754  -8.275  0.00  0.00    +0.019 A 
ATOM     38  C   UNL     1     -18.252   8.094  -9.101  0.00  0.00    +0.120 A 
ATOM     39  N   UNL     1     -19.500   7.552  -8.811  0.00  0.00    -0.263 NA
ATOM     40  C   UNL     1     -19.709   6.674  -7.737  0.00  0.00    +0.111 A 
ENDBRANCH   4   3
ENDBRANCH  10   9
BRANCH  12  13
ATOM     13  N   UNL     1     -11.141  13.481 -11.686  0.00  0.00    -0.281 N 
ATOM     14  C   UNL     1     -10.145  13.784 -10.772  0.00  0.00    +0.248 C 
ATOM     30  O   UNL     1      -9.605  12.966 -10.041  0.00  0.00    -0.270 OA
ATOM     31  H   UNL     1     -11.638  14.276 -12.088  0.00  0.00    +0.155 HD
BRANCH  14  15
ATOM     15  C   UNL     1      -9.693  15.202 -10.641  0.00  0.00    +0.037 A 
ATOM     16  C   UNL     1     -10.399  16.148  -9.772  0.00  0.00    +0.013 A 
ATOM     17  C   UNL     1      -9.952  17.515  -9.676  0.00  0.00    +0.005 A 
ATOM     18  C   UNL     1      -8.790  17.944 -10.452  0.00  0.00    -0.033 A 
ATOM     28  C   UNL     1      -8.106  16.985 -11.302  0.00  0.00    +0.005 A 
ATOM     29  C   UNL     1      -8.541  15.644 -11.398  0.00  0.00    +0.013 A 
BRANCH  18  19
ATOM     19  C   UNL     1      -8.256  19.389 -10.427  0.00  0.00    +0.119 C 
BRANCH  19  20
ATOM     20  N   UNL     1      -8.829  20.346 -11.420  0.00  0.00    -0.302 NA
ATOM     21  C   UNL     1     -10.349  20.474 -11.284  0.00  0.00    +0.066 C 
ATOM     22  C   UNL     1     -10.929  21.496 -12.315  0.00  0.00    -0.064 C 
ATOM     23  N   UNL     1     -10.546  21.061 -13.731  0.00  0.00    +0.379 N 
ATOM     24  C   UNL     1     -11.139  21.989 -14.706  0.00  0.00    -0.096 C 
ATOM     25  H   UNL     1     -10.992  20.055 -13.907  0.00  0.00    -0.082 HD
ATOM     26  C   UNL     1      -9.037  20.930 -13.874  0.00  0.00    -0.064 C 
ATOM     27  C   UNL     1      -8.467  19.934 -12.826  0.00  0.00    +0.066 C 
ENDBRANCH  19  20
ENDBRANCH  18  19
ENDBRANCH  14  15
ENDBRANCH  12  13
TORSDOF 6
ENDMDL
MODEL 3
REMARK VINA RESULT:      -7.6     21.923     25.456
REMARK  Name = C:\Users\Docking\Desktop\test protocol\1iep_ligandH.pdb
REMARK  8 active torsions:
REMARK  status: ('A' for Active; 'I' for Inactive)
REMARK    1  A    between atoms: _5  and  _11
REMARK    2  A    between atoms: _19  and  _21
REMARK    3  A    between atoms: _22  and  _66
REMARK    4  A    between atoms: _27  and  _30
REMARK    5  A    between atoms: _32  and  _33
REMARK    6  A    between atoms: _38  and  _43
REMARK    7  A    between atoms: _43  and  _46
REMARK    8  A    between atoms: _53  and  _55
REMARK                            x       y       z     vdW  Elec       q    Type
REMARK                         _______ _______ _______ _____ _____    ______ ____
ROOT
ATOM     10  C   UNL     1     -13.082  10.232 -12.141  0.00  0.00    +0.038 A 
ATOM     11  C   UNL     1     -12.726  11.518 -11.659  0.00  0.00    +0.047 A 
ATOM     12  C   UNL     1     -11.529  12.195 -12.134  0.00  0.00    +0.035 A 
ATOM     32  C   UNL     1     -10.719  11.534 -13.103  0.00  0.00    +0.024 A 
ATOM     33  C   UNL     1     -11.065  10.227 -13.602  0.00  0.00    +0.007 A 
ATOM     34  C   UNL     1     -12.243   9.553 -13.136  0.00  0.00    -0.029 A 
ATOM     35  C   UNL     1     -12.562   8.150 -13.702  0.00  0.00    +0.045 C 
ENDROOT
BRANCH  10   9
ATOM      4  C   UNL     1     -15.690   8.342  -8.582  0.00  0.00    +0.077 A 
ATOM      5  C   UNL     1     -14.642   8.551  -7.625  0.00  0.00    +0.048 A 
ATOM      6  C   UNL     1     -13.446   9.141  -8.090  0.00  0.00    +0.116 A 
ATOM      7  N   UNL     1     -13.317   9.493  -9.416  0.00  0.00    -0.223 NA
ATOM      8  C   UNL     1     -14.346   9.276 -10.314  0.00  0.00    +0.220 A 
ATOM      9  N   UNL     1     -14.242   9.629 -11.651  0.00  0.00    -0.283 N 
ATOM     36  H   UNL     1     -15.021   9.445 -12.283  0.00  0.00    +0.155 HD
ATOM     37  N   UNL     1     -15.499   8.713  -9.895  0.00  0.00    -0.214 NA
BRANCH   4   3
ATOM      1  C   UNL     1     -19.492   7.425  -8.605  0.00  0.00    +0.020 A 
ATOM      2  C   UNL     1     -18.239   8.042  -8.972  0.00  0.00    +0.013 A 
ATOM      3  C   UNL     1     -17.015   7.733  -8.244  0.00  0.00    +0.019 A 
ATOM     38  C   UNL     1     -17.094   6.787  -7.141  0.00  0.00    +0.120 A 
ATOM     39  N   UNL     1     -18.316   6.209  -6.809  0.00  0.00    -0.263 NA
ATOM     40  C   UNL     1     -19.500   6.501  -7.501  0.00  0.00    +0.111 A 
ENDBRANCH   4   3
ENDBRANCH  10   9
BRANCH  12  13
ATOM     13  N   UNL     1     -11.113  13.497 -11.675  0.00  0.00    -0.281 N 
ATOM     14  C   UNL     1     -10.090  13.802 -10.793  0.00  0.00    +0.248 C 
ATOM     30  O   UNL     1      -9.512  12.982 -10.095  0.00  0.00    -0.270 OA
ATOM     31  H   UNL     1     -11.637  14.290 -12.046  0.00  0.00    +0.155 HD
BRANCH  14  15
ATOM     15  C   UNL     1      -9.656  15.226 -10.655  0.00  0.00    +0.037 A 
ATOM     16  C   UNL     1      -8.493  15.740 -11.382  0.00  0.00    +0.013 A 
ATOM     17  C   UNL     1      -8.086  17.113 -11.218  0.00  0.00    +0.005 A 
ATOM     18  C   UNL     1      -8.844  17.982 -10.322  0.00  0.00    -0.033 A 
ATOM     28  C   UNL     1      -9.997  17.448  -9.616  0.00  0.00    +0.005 A 
ATOM     29  C   UNL     1     -10.399  16.102  -9.774  0.00  0.00    +0.013 A 
BRANCH  18  19
ATOM     19  C   UNL     1      -8.469  19.455 -10.070  0.00  0.00    +0.119 C 
BRANCH  19  20
ATOM     20  N   UNL     1      -9.291  20.497 -10.754  0.00  0.00    -0.302 NA
ATOM     21  C   UNL     1     -10.701  20.595 -10.165  0.00  0.00    +0.066 C 
ATOM     22  C   UNL     1     -11.540  21.705 -10.878  0.00  0.00    -0.064 C 
ATOM     23  N   UNL     1     -11.599  21.412 -12.378  0.00  0.00    +0.379 N 
ATOM     24  C   UNL     1     -12.435  22.422 -13.043  0.00  0.00    -0.096 C 
ATOM     25  H   UNL     1     -12.095  20.422 -12.510  0.00  0.00    -0.082 HD
ATOM     26  C   UNL     1     -10.201  21.310 -12.972  0.00  0.00    -0.064 C 
ATOM     27  C   UNL     1      -9.366  20.224 -12.236  0.00  0.00    +0.066 C 
ENDBRANCH  19  20
ENDBRANCH  18  19
ENDBRANCH  14  15
ENDBRANCH  12  13
TORSDOF 6
ENDMDL
MODEL 4
REMARK VINA RESULT:      -7.6     21.335     24.995
REMARK  Name = C:\Users\Docking\Desktop\test protocol\1iep_ligandH.pdb
REMARK  8 active torsions:
REMARK  status: ('A' for Active; 'I' for Inactive)
REMARK    1  A    between atoms: _5  and  _11
REMARK    2  A    between atoms: _19  and  _21
REMARK    3  A    between atoms: _22  and  _66
REMARK    4  A    between atoms: _27  and  _30
REMARK    5  A    between atoms: _32  and  _33
REMARK    6  A    between atoms: _38  and  _43
REMARK    7  A    between atoms: _43  and  _46
REMARK    8  A    between atoms: _53  and  _55
REMARK                            x       y       z     vdW  Elec       q    Type
REMARK                         _______ _______ _______ _____ _____    ______ ____
ROOT
ATOM     10  C   UNL     1     -12.835   9.921 -11.704  0.00  0.00    +0.038 A 
ATOM     11  C   UNL     1     -12.473  11.202 -11.215  0.00  0.00    +0.047 A 
ATOM     12  C   UNL     1     -11.581  12.070 -11.967  0.00  0.00    +0.035 A 
ATOM     32  C   UNL     1     -11.077  11.602 -13.216  0.00  0.00    +0.024 A 
ATOM     33  C   UNL     1     -11.434  10.302 -13.728  0.00  0.00    +0.007 A 
ATOM     34  C   UNL     1     -12.312   9.441 -12.989  0.00  0.00    -0.029 A 
ATOM     35  C   UNL     1     -12.655   8.054 -13.583  0.00  0.00    +0.045 C 
ENDROOT
BRANCH  10   9
ATOM      4  C   UNL     1     -13.696   6.854  -8.114  0.00  0.00    +0.077 A 
ATOM      5  C   UNL     1     -12.311   6.804  -7.745  0.00  0.00    +0.048 A 
ATOM      6  C   UNL     1     -11.408   7.577  -8.509  0.00  0.00    +0.116 A 
ATOM      7  N   UNL     1     -11.867   8.339  -9.561  0.00  0.00    -0.223 NA
ATOM      8  C   UNL     1     -13.210   8.363  -9.892  0.00  0.00    +0.220 A 
ATOM      9  N   UNL     1     -13.695   9.129 -10.941  0.00  0.00    -0.283 N 
ATOM     36  H   UNL     1     -14.692   9.114 -11.157  0.00  0.00    +0.155 HD
ATOM     37  N   UNL     1     -14.092   7.633  -9.178  0.00  0.00    -0.214 NA
BRANCH   4   3
ATOM      1  C   UNL     1     -17.119   5.849  -6.510  0.00  0.00    +0.020 A 
ATOM      2  C   UNL     1     -16.116   6.623  -7.205  0.00  0.00    +0.013 A 
ATOM      3  C   UNL     1     -14.772   6.095  -7.401  0.00  0.00    +0.019 A 
ATOM     38  C   UNL     1     -14.473   4.771  -6.877  0.00  0.00    +0.120 A 
ATOM     39  N   UNL     1     -15.458   4.050  -6.211  0.00  0.00    -0.263 NA
ATOM     40  C   UNL     1     -16.755   4.548  -6.015  0.00  0.00    +0.111 A 
ENDBRANCH   4   3
ENDBRANCH  10   9
BRANCH  12  13
ATOM     13  N   UNL     1     -11.172  13.378 -11.518  0.00  0.00    -0.281 N 
ATOM     14  C   UNL     1     -10.090  13.702 -10.716  0.00  0.00    +0.248 C 
ATOM     30  O   UNL     1      -9.429  12.891 -10.085  0.00  0.00    -0.270 OA
ATOM     31  H   UNL     1     -11.750  14.158 -11.828  0.00  0.00    +0.155 HD
BRANCH  14  15
ATOM     15  C   UNL     1      -9.694  15.138 -10.584  0.00  0.00    +0.037 A 
ATOM     16  C   UNL     1      -8.527  15.671 -11.291  0.00  0.00    +0.013 A 
ATOM     17  C   UNL     1      -8.156  17.056 -11.134  0.00  0.00    +0.005 A 
ATOM     18  C   UNL     1      -8.956  17.916 -10.266  0.00  0.00    -0.033 A 
ATOM     28  C   UNL     1     -10.112  17.362  -9.580  0.00  0.00    +0.005 A 
ATOM     29  C   UNL     1     -10.477  16.006  -9.732  0.00  0.00    +0.013 A 
BRANCH  18  19
ATOM     19  C   UNL     1      -8.622  19.400 -10.022  0.00  0.00    +0.119 C 
BRANCH  19  20
ATOM     20  N   UNL     1      -9.372  20.411 -10.827  0.00  0.00    -0.302 NA
ATOM     21  C   UNL     1     -10.849  20.480 -10.430  0.00  0.00    +0.066 C 
ATOM     22  C   UNL     1     -11.613  21.558 -11.266  0.00  0.00    -0.064 C 
ATOM     23  N   UNL     1     -11.466  21.242 -12.756  0.00  0.00    +0.379 N 
ATOM     24  C   UNL     1     -12.232  22.220 -13.543  0.00  0.00    -0.096 C 
ATOM     25  H   UNL     1     -11.916  20.238 -12.934  0.00  0.00    -0.082 HD
ATOM     26  C   UNL     1     -10.000  21.169 -13.158  0.00  0.00    -0.064 C 
ATOM     27  C   UNL     1      -9.244  20.116 -12.301  0.00  0.00    +0.066 C 
ENDBRANCH  19  20
ENDBRANCH  18  19
ENDBRANCH  14  15
ENDBRANCH  12  13
TORSDOF 6
ENDMDL
MODEL 5
REMARK VINA RESULT:      -7.5      7.772     12.082
REMARK  Name = C:\Users\Docking\Desktop\test protocol\1iep_ligandH.pdb
REMARK  8 active torsions:
REMARK  status: ('A' for Active; 'I' for Inactive)
REMARK    1  A    between atoms: _5  and  _11
REMARK    2  A    between atoms: _19  and  _21
REMARK    3  A    between atoms: _22  and  _66
REMARK    4  A    between atoms: _27  and  _30
REMARK    5  A    between atoms: _32  and  _33
REMARK    6  A    between atoms: _38  and  _43
REMARK    7  A    between atoms: _43  and  _46
REMARK    8  A    between atoms: _53  and  _55
REMARK                            x       y       z     vdW  Elec       q    Type
REMARK                         _______ _______ _______ _____ _____    ______ ____
ROOT
ATOM     10  C   UNL     1     -10.878  -4.629  -9.333  0.00  0.00    +0.038 A 
ATOM     11  C   UNL     1     -10.589  -5.597  -8.337  0.00  0.00    +0.047 A 
ATOM     12  C   UNL     1     -10.800  -7.015  -8.582  0.00  0.00    +0.035 A 
ATOM     32  C   UNL     1     -11.304  -7.413  -9.855  0.00  0.00    +0.024 A 
ATOM     33  C   UNL     1     -11.603  -6.443 -10.878  0.00  0.00    +0.007 A 
ATOM     34  C   UNL     1     -11.400  -5.042 -10.641  0.00  0.00    -0.029 A 
ATOM     35  C   UNL     1     -11.744  -4.046 -11.772  0.00  0.00    +0.045 C 
ENDROOT
BRANCH  10   9
ATOM      4  C   UNL     1     -11.667  -0.673  -6.732  0.00  0.00    +0.077 A 
ATOM      5  C   UNL     1     -12.622  -1.342  -5.896  0.00  0.00    +0.048 A 
ATOM      6  C   UNL     1     -12.887  -2.702  -6.173  0.00  0.00    +0.116 A 
ATOM      7  N   UNL     1     -12.239  -3.336  -7.211  0.00  0.00    -0.223 NA
ATOM      8  C   UNL     1     -11.325  -2.661  -7.999  0.00  0.00    +0.220 A 
ATOM      9  N   UNL     1     -10.656  -3.281  -9.043  0.00  0.00    -0.283 N 
ATOM     36  H   UNL     1      -9.995  -2.747  -9.606  0.00  0.00    +0.155 HD
ATOM     37  N   UNL     1     -11.056  -1.362  -7.756  0.00  0.00    -0.214 NA
BRANCH   4   3
ATOM      1  C   UNL     1     -10.113   2.868  -7.321  0.00  0.00    +0.020 A 
ATOM      2  C   UNL     1     -10.460   1.481  -7.531  0.00  0.00    +0.013 A 
ATOM      3  C   UNL     1     -11.278   0.763  -6.563  0.00  0.00    +0.019 A 
ATOM     38  C   UNL     1     -11.734   1.482  -5.383  0.00  0.00    +0.120 A 
ATOM     39  N   UNL     1     -11.383   2.817  -5.207  0.00  0.00    -0.263 NA
ATOM     40  C   UNL     1     -10.595   3.518  -6.131  0.00  0.00    +0.111 A 
ENDBRANCH   4   3
ENDBRANCH  10   9
BRANCH  12  13
ATOM     13  N   UNL     1     -10.533  -8.043  -7.606  0.00  0.00    -0.281 N 
ATOM     14  C   UNL     1     -11.449  -8.783  -6.877  0.00  0.00    +0.248 C 
ATOM     30  O   UNL     1     -12.641  -8.524  -6.797  0.00  0.00    -0.270 OA
ATOM     31  H   UNL     1      -9.550  -8.249  -7.432  0.00  0.00    +0.155 HD
BRANCH  14  15
ATOM     15  C   UNL     1     -10.970  -9.976  -6.114  0.00  0.00    +0.037 A 
ATOM     16  C   UNL     1     -10.338  -9.834  -4.800  0.00  0.00    +0.013 A 
ATOM     17  C   UNL     1      -9.869 -11.000  -4.093  0.00  0.00    +0.005 A 
ATOM     18  C   UNL     1     -10.032 -12.319  -4.700  0.00  0.00    -0.033 A 
ATOM     28  C   UNL     1     -10.667 -12.431  -6.003  0.00  0.00    +0.005 A 
ATOM     29  C   UNL     1     -11.127 -11.291  -6.699  0.00  0.00    +0.013 A 
BRANCH  18  19
ATOM     19  C   UNL     1      -9.542 -13.615  -4.028  0.00  0.00    +0.119 C 
BRANCH  19  20
ATOM     20  N   UNL     1      -8.574 -13.476  -2.899  0.00  0.00    -0.302 NA
ATOM     21  C   UNL     1      -7.427 -14.486  -2.999  0.00  0.00    +0.066 C 
ATOM     22  C   UNL     1      -6.411 -14.312  -1.824  0.00  0.00    -0.064 C 
ATOM     23  N   UNL     1      -7.148 -14.459  -0.491  0.00  0.00    +0.379 N 
ATOM     24  C   UNL     1      -6.186 -14.354   0.615  0.00  0.00    -0.096 C 
ATOM     25  H   UNL     1      -7.588 -15.483  -0.460  0.00  0.00    -0.082 HD
ATOM     26  C   UNL     1      -8.292 -13.461  -0.384  0.00  0.00    -0.064 C 
ATOM     27  C   UNL     1      -9.279 -13.623  -1.574  0.00  0.00    +0.066 C 
ENDBRANCH  19  20
ENDBRANCH  18  19
ENDBRANCH  14  15
ENDBRANCH  12  13
TORSDOF 6
ENDMDL
