MODEL 1
REMARK VINA RESULT:      -8.2      0.000      0.000
REMARK  Name = C:\Users\Docking\Desktop\test protocol\1iep_ligandH.pdb
REMARK  8 active torsions:
REMARK  status: ('A' for Active; 'I' for Inactive)
REMARK    1  A    between atoms: _5  and  _11
REMARK    2  A    between atoms: _19  and  _21
REMARK    3  A    between atoms: _22  and  _66
REMARK    4  A    between atoms: _27  and  _30
REMARK    5  A    between atoms: _32  and  _33
REMARK    6  A    between atoms: _38  and  _43
REMARK    7  A    between atoms: _43  and  _46
REMARK    8  A    between atoms: _53  and  _55
REMARK                            x       y       z     vdW  Elec       q    Type
REMARK                         _______ _______ _______ _____ _____    ______ ____
ROOT
ATOM     10  C   UNL     1     -16.199 -12.473   3.388  0.00  0.00    +0.038 A 
ATOM     11  C   UNL     1     -16.204 -11.703   4.579  0.00  0.00    +0.047 A 
ATOM     12  C   UNL     1     -15.992 -10.264   4.546  0.00  0.00    +0.035 A 
ATOM     32  C   UNL     1     -15.781  -9.641   3.281  0.00  0.00    +0.024 A 
ATOM     33  C   UNL     1     -15.771 -10.409   2.060  0.00  0.00    +0.007 A 
ATOM     34  C   UNL     1     -15.977 -11.829   2.087  0.00  0.00    -0.029 A 
ATOM     35  C   UNL     1     -15.951 -12.602   0.748  0.00  0.00    +0.045 C 
ENDROOT
BRANCH  10   9
ATOM      4  C   UNL     1     -14.624 -16.957   4.057  0.00  0.00    +0.077 A 
ATOM      5  C   UNL     1     -13.267 -16.520   4.214  0.00  0.00    +0.048 A 
ATOM      6  C   UNL     1     -13.015 -15.134   4.108  0.00  0.00    +0.116 A 
ATOM      7  N   UNL     1     -14.051 -14.259   3.864  0.00  0.00    -0.223 NA
ATOM      8  C   UNL     1     -15.349 -14.714   3.716  0.00  0.00    +0.220 A 
ATOM      9  N   UNL     1     -16.408 -13.851   3.478  0.00  0.00    -0.283 N 
ATOM     36  H   UNL     1     -17.349 -14.226   3.367  0.00  0.00    +0.155 HD
ATOM     37  N   UNL     1     -15.615 -16.033   3.811  0.00  0.00    -0.214 NA
BRANCH   4   3
ATOM      1  C   UNL     1     -16.763 -20.230   3.936  0.00  0.00    +0.020 A 
ATOM      2  C   UNL     1     -16.403 -18.835   3.836  0.00  0.00    +0.013 A 
ATOM      3  C   UNL     1     -15.050 -18.390   4.145  0.00  0.00    +0.019 A 
ATOM     38  C   UNL     1     -14.077 -19.391   4.555  0.00  0.00    +0.120 A 
ATOM     39  N   UNL     1     -14.453 -20.727   4.645  0.00  0.00    -0.263 NA
ATOM     40  C   UNL     1     -15.752 -21.167   4.351  0.00  0.00    +0.111 A 
ENDBRANCH   4   3
ENDBRANCH  10   9
BRANCH  12  13
ATOM     13  N   UNL     1     -15.978  -9.432   5.723  0.00  0.00    -0.281 N 
ATOM     14  C   UNL     1     -14.929  -8.677   6.220  0.00  0.00    +0.248 C 
ATOM     30  O   UNL     1     -13.770  -8.771   5.843  0.00  0.00    -0.270 OA
ATOM     31  H   UNL     1     -16.848  -9.395   6.254  0.00  0.00    +0.155 HD
BRANCH  14  15
ATOM     15  C   UNL     1     -15.203  -7.683   7.302  0.00  0.00    +0.037 A 
ATOM     16  C   UNL     1     -14.116  -7.107   8.098  0.00  0.00    +0.013 A 
ATOM     17  C   UNL     1     -14.410  -6.163   9.147  0.00  0.00    +0.005 A 
ATOM     18  C   UNL     1     -15.798  -5.789   9.406  0.00  0.00    -0.033 A 
ATOM     28  C   UNL     1     -16.856  -6.372   8.598  0.00  0.00    +0.005 A 
ATOM     29  C   UNL     1     -16.572  -7.298   7.569  0.00  0.00    +0.013 A 
BRANCH  18  19
ATOM     19  C   UNL     1     -16.205  -4.806  10.519  0.00  0.00    +0.119 C 
BRANCH  19  20
ATOM     20  N   UNL     1     -16.087  -3.347  10.220  0.00  0.00    -0.302 NA
ATOM     21  C   UNL     1     -15.053  -2.659  11.116  0.00  0.00    +0.066 C 
ATOM     22  C   UNL     1     -14.926  -1.139  10.774  0.00  0.00    -0.064 C 
ATOM     23  N   UNL     1     -16.295  -0.471  10.917  0.00  0.00    +0.379 N 
ATOM     24  C   UNL     1     -16.168   0.970  10.653  0.00  0.00    -0.096 C 
ATOM     25  H   UNL     1     -16.622  -0.594  11.975  0.00  0.00    -0.082 HD
ATOM     26  C   UNL     1     -17.330  -1.151  10.031  0.00  0.00    -0.064 C 
ATOM     27  C   UNL     1     -17.427  -2.667  10.359  0.00  0.00    +0.066 C 
ENDBRANCH  19  20
ENDBRANCH  18  19
ENDBRANCH  14  15
ENDBRANCH  12  13
TORSDOF 6
ENDMDL
MODEL 2
REMARK VINA RESULT:      -7.7      1.147      1.835
REMARK  Name = C:\Users\Docking\Desktop\test protocol\1iep_ligandH.pdb
REMARK  8 active torsions:
REMARK  status: ('A' for Active; 'I' for Inactive)
REMARK    1  A    between atoms: _5  and  _11
REMARK    2  A    between atoms: _19  and  _21
REMARK    3  A    between atoms: _22  and  _66
REMARK    4  A    between atoms: _27  and  _30
REMARK    5  A    between atoms: _32  and  _33
REMARK    6  A    between atoms: _38  and  _43
REMARK    7  A    between atoms: _43  and  _46
REMARK    8  A    between atoms: _53  and  _55
REMARK                            x       y       z     vdW  Elec       q    Type
REMARK                         _______ _______ _______ _____ _____    ______ ____
ROOT
ATOM     10  C   UNL     1     -16.163 -12.404   3.461  0.00  0.00    +0.038 A 
ATOM     11  C   UNL     1     -16.067 -11.636   4.649  0.00  0.00    +0.047 A 
ATOM     12  C   UNL     1     -15.814 -10.204   4.601  0.00  0.00    +0.035 A 
ATOM     32  C   UNL     1     -15.666  -9.586   3.325  0.00  0.00    +0.024 A 
ATOM     33  C   UNL     1     -15.759 -10.352   2.107  0.00  0.00    +0.007 A 
ATOM     34  C   UNL     1     -16.006 -11.765   2.148  0.00  0.00    -0.029 A 
ATOM     35  C   UNL     1     -16.090 -12.538   0.811  0.00  0.00    +0.045 C 
ENDROOT
BRANCH  10   9
ATOM      4  C   UNL     1     -14.691 -16.931   4.076  0.00  0.00    +0.077 A 
ATOM      5  C   UNL     1     -13.315 -16.533   4.171  0.00  0.00    +0.048 A 
ATOM      6  C   UNL     1     -13.029 -15.155   4.048  0.00  0.00    +0.116 A 
ATOM      7  N   UNL     1     -14.049 -14.251   3.847  0.00  0.00    -0.223 NA
ATOM      8  C   UNL     1     -15.364 -14.668   3.759  0.00  0.00    +0.220 A 
ATOM      9  N   UNL     1     -16.407 -13.775   3.565  0.00  0.00    -0.283 N 
ATOM     36  H   UNL     1     -17.363 -14.123   3.499  0.00  0.00    +0.155 HD
ATOM     37  N   UNL     1     -15.664 -15.979   3.871  0.00  0.00    -0.214 NA
BRANCH   4   3
ATOM      1  C   UNL     1     -14.812 -20.770   4.813  0.00  0.00    +0.020 A 
ATOM      2  C   UNL     1     -14.317 -19.416   4.726  0.00  0.00    +0.013 A 
ATOM      3  C   UNL     1     -15.153 -18.350   4.188  0.00  0.00    +0.019 A 
ATOM     38  C   UNL     1     -16.497 -18.691   3.745  0.00  0.00    +0.120 A 
ATOM     39  N   UNL     1     -16.946 -20.004   3.840  0.00  0.00    -0.263 NA
ATOM     40  C   UNL     1     -16.150 -21.038   4.354  0.00  0.00    +0.111 A 
ENDBRANCH   4   3
ENDBRANCH  10   9
BRANCH  12  13
ATOM     13  N   UNL     1     -15.699  -9.374   5.775  0.00  0.00    -0.281 N 
ATOM     14  C   UNL     1     -14.567  -8.743   6.264  0.00  0.00    +0.248 C 
ATOM     30  O   UNL     1     -13.429  -8.973   5.883  0.00  0.00    -0.270 OA
ATOM     31  H   UNL     1     -16.556  -9.234   6.309  0.00  0.00    +0.155 HD
BRANCH  14  15
ATOM     15  C   UNL     1     -14.719  -7.720   7.342  0.00  0.00    +0.037 A 
ATOM     16  C   UNL     1     -16.042  -7.323   7.832  0.00  0.00    +0.013 A 
ATOM     17  C   UNL     1     -16.162  -6.321   8.862  0.00  0.00    +0.005 A 
ATOM     18  C   UNL     1     -14.953  -5.710   9.410  0.00  0.00    -0.033 A 
ATOM     28  C   UNL     1     -13.653  -6.126   8.909  0.00  0.00    +0.005 A 
ATOM     29  C   UNL     1     -13.532  -7.107   7.899  0.00  0.00    +0.013 A 
BRANCH  18  19
ATOM     19  C   UNL     1     -14.987  -4.618  10.495  0.00  0.00    +0.119 C 
BRANCH  19  20
ATOM     20  N   UNL     1     -16.329  -4.127  10.930  0.00  0.00    -0.302 NA
ATOM     21  C   UNL     1     -16.593  -2.691  10.470  0.00  0.00    +0.066 C 
ATOM     22  C   UNL     1     -18.010  -2.202  10.914  0.00  0.00    -0.064 C 
ATOM     23  N   UNL     1     -18.131  -2.314  12.435  0.00  0.00    +0.379 N 
ATOM     24  C   UNL     1     -19.441  -1.801  12.861  0.00  0.00    -0.096 C 
ATOM     25  H   UNL     1     -17.349  -1.661  12.886  0.00  0.00    -0.082 HD
ATOM     26  C   UNL     1     -17.868  -3.739  12.901  0.00  0.00    -0.064 C 
ATOM     27  C   UNL     1     -16.469  -4.226  12.429  0.00  0.00    +0.066 C 
ENDBRANCH  19  20
ENDBRANCH  18  19
ENDBRANCH  14  15
ENDBRANCH  12  13
TORSDOF 6
ENDMDL
MODEL 3
REMARK VINA RESULT:      -7.7      3.649     15.308
REMARK  Name = C:\Users\Docking\Desktop\test protocol\1iep_ligandH.pdb
REMARK  8 active torsions:
REMARK  status: ('A' for Active; 'I' for Inactive)
REMARK    1  A    between atoms: _5  and  _11
REMARK    2  A    between atoms: _19  and  _21
REMARK    3  A    between atoms: _22  and  _66
REMARK    4  A    between atoms: _27  and  _30
REMARK    5  A    between atoms: _32  and  _33
REMARK    6  A    between atoms: _38  and  _43
REMARK    7  A    between atoms: _43  and  _46
REMARK    8  A    between atoms: _53  and  _55
REMARK                            x       y       z     vdW  Elec       q    Type
REMARK                         _______ _______ _______ _____ _____    ______ ____
ROOT
ATOM     10  C   UNL     1     -17.194  -1.791  10.405  0.00  0.00    +0.038 A 
ATOM     11  C   UNL     1     -16.542  -2.720   9.555  0.00  0.00    +0.047 A 
ATOM     12  C   UNL     1     -16.453  -4.128   9.906  0.00  0.00    +0.035 A 
ATOM     32  C   UNL     1     -17.041  -4.557  11.132  0.00  0.00    +0.024 A 
ATOM     33  C   UNL     1     -17.706  -3.626  12.009  0.00  0.00    +0.007 A 
ATOM     34  C   UNL     1     -17.795  -2.235  11.669  0.00  0.00    -0.029 A 
ATOM     35  C   UNL     1     -18.515  -1.281  12.650  0.00  0.00    +0.045 C 
ENDROOT
BRANCH  10   9
ATOM      4  C   UNL     1     -15.501   2.700  10.441  0.00  0.00    +0.077 A 
ATOM      5  C   UNL     1     -14.428   2.352  11.328  0.00  0.00    +0.048 A 
ATOM      6  C   UNL     1     -14.352   1.008  11.758  0.00  0.00    +0.116 A 
ATOM      7  N   UNL     1     -15.284   0.089  11.326  0.00  0.00    -0.223 NA
ATOM      8  C   UNL     1     -16.307   0.459  10.472  0.00  0.00    +0.220 A 
ATOM      9  N   UNL     1     -17.250  -0.450  10.018  0.00  0.00    -0.283 N 
ATOM     36  H   UNL     1     -17.994  -0.136   9.395  0.00  0.00    +0.155 HD
ATOM     37  N   UNL     1     -16.402   1.736  10.048  0.00  0.00    -0.214 NA
BRANCH   4   3
ATOM      1  C   UNL     1     -16.375   5.683   8.067  0.00  0.00    +0.020 A 
ATOM      2  C   UNL     1     -16.187   4.332   8.543  0.00  0.00    +0.013 A 
ATOM      3  C   UNL     1     -15.713   4.079   9.898  0.00  0.00    +0.019 A 
ATOM     38  C   UNL     1     -15.438   5.224  10.753  0.00  0.00    +0.120 A 
ATOM     39  N   UNL     1     -15.628   6.514  10.267  0.00  0.00    -0.263 NA
ATOM     40  C   UNL     1     -16.082   6.770   8.965  0.00  0.00    +0.111 A 
ENDBRANCH   4   3
ENDBRANCH  10   9
BRANCH  12  13
ATOM     13  N   UNL     1     -15.797  -5.116   9.086  0.00  0.00    -0.281 N 
ATOM     14  C   UNL     1     -14.681  -5.876   9.397  0.00  0.00    +0.248 C 
ATOM     30  O   UNL     1     -13.946  -5.667  10.351  0.00  0.00    -0.270 OA
ATOM     31  H   UNL     1     -16.205  -5.275   8.165  0.00  0.00    +0.155 HD
BRANCH  14  15
ATOM     15  C   UNL     1     -14.321  -7.025   8.512  0.00  0.00    +0.037 A 
ATOM     16  C   UNL     1     -14.997  -8.319   8.634  0.00  0.00    +0.013 A 
ATOM     17  C   UNL     1     -14.619  -9.417   7.779  0.00  0.00    +0.005 A 
ATOM     18  C   UNL     1     -13.558  -9.224   6.793  0.00  0.00    -0.033 A 
ATOM     28  C   UNL     1     -12.908  -7.928   6.690  0.00  0.00    +0.005 A 
ATOM     29  C   UNL     1     -13.275  -6.851   7.527  0.00  0.00    +0.013 A 
BRANCH  18  19
ATOM     19  C   UNL     1     -13.075 -10.345   5.854  0.00  0.00    +0.119 C 
BRANCH  19  20
ATOM     20  N   UNL     1     -14.101 -11.002   4.990  0.00  0.00    -0.302 NA
ATOM     21  C   UNL     1     -13.523 -12.190   4.215  0.00  0.00    +0.066 C 
ATOM     22  C   UNL     1     -14.614 -12.880   3.334  0.00  0.00    -0.064 C 
ATOM     23  N   UNL     1     -15.218 -11.851   2.377  0.00  0.00    +0.379 N 
ATOM     24  C   UNL     1     -16.204 -12.509   1.507  0.00  0.00    -0.096 C 
ATOM     25  H   UNL     1     -14.396 -11.469   1.728  0.00  0.00    -0.082 HD
ATOM     26  C   UNL     1     -15.793 -10.665   3.139  0.00  0.00    -0.064 C 
ATOM     27  C   UNL     1     -14.707 -10.005   4.034  0.00  0.00    +0.066 C 
ENDBRANCH  19  20
ENDBRANCH  18  19
ENDBRANCH  14  15
ENDBRANCH  12  13
TORSDOF 6
ENDMDL
MODEL 4
REMARK VINA RESULT:      -7.6      4.615      7.292
REMARK  Name = C:\Users\Docking\Desktop\test protocol\1iep_ligandH.pdb
REMARK  8 active torsions:
REMARK  status: ('A' for Active; 'I' for Inactive)
REMARK    1  A    between atoms: _5  and  _11
REMARK    2  A    between atoms: _19  and  _21
REMARK    3  A    between atoms: _22  and  _66
REMARK    4  A    between atoms: _27  and  _30
REMARK    5  A    between atoms: _32  and  _33
REMARK    6  A    between atoms: _38  and  _43
REMARK    7  A    between atoms: _43  and  _46
REMARK    8  A    between atoms: _53  and  _55
REMARK                            x       y       z     vdW  Elec       q    Type
REMARK                         _______ _______ _______ _____ _____    ______ ____
ROOT
ATOM     10  C   UNL     1     -15.269  -9.479   5.907  0.00  0.00    +0.038 A 
ATOM     11  C   UNL     1     -15.688  -8.375   6.692  0.00  0.00    +0.047 A 
ATOM     12  C   UNL     1     -17.055  -8.275   7.180  0.00  0.00    +0.035 A 
ATOM     32  C   UNL     1     -17.968  -9.318   6.851  0.00  0.00    +0.024 A 
ATOM     33  C   UNL     1     -17.559 -10.447   6.053  0.00  0.00    +0.007 A 
ATOM     34  C   UNL     1     -16.213 -10.551   5.567  0.00  0.00    -0.029 A 
ATOM     35  C   UNL     1     -15.831 -11.780   4.710  0.00  0.00    +0.045 C 
ENDROOT
BRANCH  10   9
ATOM      4  C   UNL     1     -11.772  -8.210   2.874  0.00  0.00    +0.077 A 
ATOM      5  C   UNL     1     -12.665  -7.409   2.086  0.00  0.00    +0.048 A 
ATOM      6  C   UNL     1     -14.017  -7.356   2.492  0.00  0.00    +0.116 A 
ATOM      7  N   UNL     1     -14.435  -8.055   3.603  0.00  0.00    -0.223 NA
ATOM      8  C   UNL     1     -13.548  -8.820   4.339  0.00  0.00    +0.220 A 
ATOM      9  N   UNL     1     -13.944  -9.525   5.465  0.00  0.00    -0.283 N 
ATOM     36  H   UNL     1     -13.261 -10.083   5.977  0.00  0.00    +0.155 HD
ATOM     37  N   UNL     1     -12.252  -8.888   3.972  0.00  0.00    -0.214 NA
BRANCH   4   3
ATOM      1  C   UNL     1      -8.395  -8.991   1.062  0.00  0.00    +0.020 A 
ATOM      2  C   UNL     1      -9.814  -8.862   1.300  0.00  0.00    +0.013 A 
ATOM      3  C   UNL     1     -10.313  -8.363   2.575  0.00  0.00    +0.019 A 
ATOM     38  C   UNL     1      -9.342  -8.000   3.596  0.00  0.00    +0.120 A 
ATOM     39  N   UNL     1      -7.982  -8.136   3.339  0.00  0.00    -0.263 NA
ATOM     40  C   UNL     1      -7.490  -8.617   2.116  0.00  0.00    +0.111 A 
ENDBRANCH   4   3
ENDBRANCH  10   9
BRANCH  12  13
ATOM     13  N   UNL     1     -17.540  -7.174   7.974  0.00  0.00    -0.281 N 
ATOM     14  C   UNL     1     -17.591  -7.077   9.355  0.00  0.00    +0.248 C 
ATOM     30  O   UNL     1     -17.423  -8.015  10.120  0.00  0.00    -0.270 OA
ATOM     31  H   UNL     1     -17.888  -6.367   7.456  0.00  0.00    +0.155 HD
BRANCH  14  15
ATOM     15  C   UNL     1     -17.885  -5.750   9.976  0.00  0.00    +0.037 A 
ATOM     16  C   UNL     1     -19.167  -5.486  10.634  0.00  0.00    +0.013 A 
ATOM     17  C   UNL     1     -19.431  -4.191  11.210  0.00  0.00    +0.005 A 
ATOM     18  C   UNL     1     -18.409  -3.150  11.131  0.00  0.00    -0.033 A 
ATOM     28  C   UNL     1     -17.144  -3.441  10.478  0.00  0.00    +0.005 A 
ATOM     29  C   UNL     1     -16.882  -4.708   9.911  0.00  0.00    +0.013 A 
BRANCH  18  19
ATOM     19  C   UNL     1     -18.613  -1.733  11.700  0.00  0.00    +0.119 C 
BRANCH  19  20
ATOM     20  N   UNL     1     -18.031  -1.446  13.045  0.00  0.00    -0.302 NA
ATOM     21  C   UNL     1     -19.088  -1.496  14.151  0.00  0.00    +0.066 C 
ATOM     22  C   UNL     1     -18.457  -1.215  15.554  0.00  0.00    -0.064 C 
ATOM     23  N   UNL     1     -17.760   0.146  15.533  0.00  0.00    +0.379 N 
ATOM     24  C   UNL     1     -17.216   0.439  16.867  0.00  0.00    -0.096 C 
ATOM     25  H   UNL     1     -18.532   0.918  15.305  0.00  0.00    -0.082 HD
ATOM     26  C   UNL     1     -16.709   0.206  14.434  0.00  0.00    -0.064 C 
ATOM     27  C   UNL     1     -17.340  -0.104  13.048  0.00  0.00    +0.066 C 
ENDBRANCH  19  20
ENDBRANCH  18  19
ENDBRANCH  14  15
ENDBRANCH  12  13
TORSDOF 6
ENDMDL
MODEL 5
REMARK VINA RESULT:      -7.5      3.622      7.204
REMARK  Name = C:\Users\Docking\Desktop\test protocol\1iep_ligandH.pdb
REMARK  8 active torsions:
REMARK  status: ('A' for Active; 'I' for Inactive)
REMARK    1  A    between atoms: _5  and  _11
REMARK    2  A    between atoms: _19  and  _21
REMARK    3  A    between atoms: _22  and  _66
REMARK    4  A    between atoms: _27  and  _30
REMARK    5  A    between atoms: _32  and  _33
REMARK    6  A    between atoms: _38  and  _43
REMARK    7  A    between atoms: _43  and  _46
REMARK    8  A    between atoms: _53  and  _55
REMARK                            x       y       z     vdW  Elec       q    Type
REMARK                         _______ _______ _______ _____ _____    ______ ____
ROOT
ATOM     10  C   UNL     1     -13.351  -7.698   8.042  0.00  0.00    +0.038 A 
ATOM     11  C   UNL     1     -14.312  -6.790   8.555  0.00  0.00    +0.047 A 
ATOM     12  C   UNL     1     -13.916  -5.673   9.399  0.00  0.00    +0.035 A 
ATOM     32  C   UNL     1     -12.532  -5.510   9.698  0.00  0.00    +0.024 A 
ATOM     33  C   UNL     1     -11.542  -6.425   9.186  0.00  0.00    +0.007 A 
ATOM     34  C   UNL     1     -11.927  -7.530   8.355  0.00  0.00    -0.029 A 
ATOM     35  C   UNL     1     -10.824  -8.483   7.840  0.00  0.00    +0.045 C 
ENDROOT
BRANCH  10   9
ATOM      4  C   UNL     1     -14.516  -9.566   3.776  0.00  0.00    +0.077 A 
ATOM      5  C   UNL     1     -14.260  -8.327   3.098  0.00  0.00    +0.048 A 
ATOM      6  C   UNL     1     -13.838  -7.232   3.885  0.00  0.00    +0.116 A 
ATOM      7  N   UNL     1     -13.685  -7.376   5.247  0.00  0.00    -0.223 NA
ATOM      8  C   UNL     1     -13.942  -8.584   5.870  0.00  0.00    +0.220 A 
ATOM      9  N   UNL     1     -13.787  -8.753   7.237  0.00  0.00    -0.283 N 
ATOM     36  H   UNL     1     -13.994  -9.658   7.659  0.00  0.00    +0.155 HD
ATOM     37  N   UNL     1     -14.348  -9.644   5.141  0.00  0.00    -0.214 NA
BRANCH   4   3
ATOM      1  C   UNL     1     -16.306 -12.041   1.333  0.00  0.00    +0.020 A 
ATOM      2  C   UNL     1     -15.905 -10.807   1.968  0.00  0.00    +0.013 A 
ATOM      3  C   UNL     1     -14.965 -10.814   3.083  0.00  0.00    +0.019 A 
ATOM     38  C   UNL     1     -14.446 -12.096   3.533  0.00  0.00    +0.120 A 
ATOM     39  N   UNL     1     -14.852 -13.269   2.903  0.00  0.00    -0.263 NA
ATOM     40  C   UNL     1     -15.757 -13.274   1.831  0.00  0.00    +0.111 A 
ENDBRANCH   4   3
ENDBRANCH  10   9
BRANCH  12  13
ATOM     13  N   UNL     1     -14.848  -4.723   9.955  0.00  0.00    -0.281 N 
ATOM     14  C   UNL     1     -16.214  -4.645   9.741  0.00  0.00    +0.248 C 
ATOM     30  O   UNL     1     -16.813  -5.253   8.866  0.00  0.00    -0.270 OA
ATOM     31  H   UNL     1     -14.452  -4.023  10.582  0.00  0.00    +0.155 HD
BRANCH  14  15
ATOM     15  C   UNL     1     -17.032  -3.751  10.616  0.00  0.00    +0.037 A 
ATOM     16  C   UNL     1     -16.501  -2.479  11.111  0.00  0.00    +0.013 A 
ATOM     17  C   UNL     1     -17.304  -1.644  11.968  0.00  0.00    +0.005 A 
ATOM     18  C   UNL     1     -18.650  -2.078  12.334  0.00  0.00    -0.033 A 
ATOM     28  C   UNL     1     -19.155  -3.343  11.824  0.00  0.00    +0.005 A 
ATOM     29  C   UNL     1     -18.369  -4.164  10.985  0.00  0.00    +0.013 A 
BRANCH  18  19
ATOM     19  C   UNL     1     -19.570  -1.261  13.260  0.00  0.00    +0.119 C 
BRANCH  19  20
ATOM     20  N   UNL     1     -19.507  -1.559  14.722  0.00  0.00    -0.302 NA
ATOM     21  C   UNL     1     -20.855  -1.333  15.413  0.00  0.00    +0.066 C 
ATOM     22  C   UNL     1     -20.777  -1.670  16.937  0.00  0.00    -0.064 C 
ATOM     23  N   UNL     1     -19.685  -0.821  17.590  0.00  0.00    +0.379 N 
ATOM     24  C   UNL     1     -19.648  -1.094  19.034  0.00  0.00    -0.096 C 
ATOM     25  H   UNL     1     -19.964   0.250  17.454  0.00  0.00    -0.082 HD
ATOM     26  C   UNL     1     -18.342  -1.037  16.907  0.00  0.00    -0.064 C 
ATOM     27  C   UNL     1     -18.438  -0.727  15.387  0.00  0.00    +0.066 C 
ENDBRANCH  19  20
ENDBRANCH  18  19
ENDBRANCH  14  15
ENDBRANCH  12  13
TORSDOF 6
ENDMDL
