MODEL 1
REMARK VINA RESULT:      -8.2      0.000      0.000
REMARK  Name = C:\Users\Docking\Desktop\test protocol\1iep_ligandH.pdb
REMARK  8 active torsions:
REMARK  status: ('A' for Active; 'I' for Inactive)
REMARK    1  A    between atoms: _5  and  _11
REMARK    2  A    between atoms: _19  and  _21
REMARK    3  A    between atoms: _22  and  _66
REMARK    4  A    between atoms: _27  and  _30
REMARK    5  A    between atoms: _32  and  _33
REMARK    6  A    between atoms: _38  and  _43
REMARK    7  A    between atoms: _43  and  _46
REMARK    8  A    between atoms: _53  and  _55
REMARK                            x       y       z     vdW  Elec       q    Type
REMARK                         _______ _______ _______ _____ _____    ______ ____
ROOT
ATOM     10  C   UNL     1     -18.680   2.573 -11.395  0.00  0.00    +0.038 A 
ATOM     11  C   UNL     1     -18.890   3.960 -11.602  0.00  0.00    +0.047 A 
ATOM     12  C   UNL     1     -18.706   4.562 -12.913  0.00  0.00    +0.035 A 
ATOM     32  C   UNL     1     -18.310   3.720 -13.993  0.00  0.00    +0.024 A 
ATOM     33  C   UNL     1     -18.091   2.308 -13.800  0.00  0.00    +0.007 A 
ATOM     34  C   UNL     1     -18.269   1.709 -12.508  0.00  0.00    -0.029 A 
ATOM     35  C   UNL     1     -18.014   0.191 -12.358  0.00  0.00    +0.045 C 
ENDROOT
BRANCH  10   9
ATOM      4  C   UNL     1     -17.125   1.510  -6.980  0.00  0.00    +0.077 A 
ATOM      5  C   UNL     1     -15.813   2.018  -7.256  0.00  0.00    +0.048 A 
ATOM      6  C   UNL     1     -15.576   2.538  -8.548  0.00  0.00    +0.116 A 
ATOM      7  N   UNL     1     -16.585   2.545  -9.487  0.00  0.00    -0.223 NA
ATOM      8  C   UNL     1     -17.840   2.045  -9.189  0.00  0.00    +0.220 A 
ATOM      9  N   UNL     1     -18.872   2.048 -10.115  0.00  0.00    -0.283 N 
ATOM     36  H   UNL     1     -19.780   1.664  -9.858  0.00  0.00    +0.155 HD
ATOM     37  N   UNL     1     -18.090   1.541  -7.962  0.00  0.00    -0.214 NA
BRANCH   4   3
ATOM      1  C   UNL     1     -17.828   1.060  -3.158  0.00  0.00    +0.020 A 
ATOM      2  C   UNL     1     -17.422   1.665  -4.406  0.00  0.00    +0.013 A 
ATOM      3  C   UNL     1     -17.530   0.931  -5.660  0.00  0.00    +0.019 A 
ATOM     38  C   UNL     1     -18.058  -0.425  -5.617  0.00  0.00    +0.120 A 
ATOM     39  N   UNL     1     -18.439  -0.982  -4.401  0.00  0.00    -0.263 NA
ATOM     40  C   UNL     1     -18.338  -0.285  -3.187  0.00  0.00    +0.111 A 
ENDBRANCH   4   3
ENDBRANCH  10   9
BRANCH  12  13
ATOM     13  N   UNL     1     -18.896   5.966 -13.182  0.00  0.00    -0.281 N 
ATOM     14  C   UNL     1     -19.961   6.572 -13.828  0.00  0.00    +0.248 C 
ATOM     30  O   UNL     1     -20.814   5.973 -14.465  0.00  0.00    -0.270 OA
ATOM     31  H   UNL     1     -18.156   6.588 -12.856  0.00  0.00    +0.155 HD
BRANCH  14  15
ATOM     15  C   UNL     1     -20.088   8.060 -13.770  0.00  0.00    +0.037 A 
ATOM     16  C   UNL     1     -18.953   8.933 -14.083  0.00  0.00    +0.013 A 
ATOM     17  C   UNL     1     -19.098  10.365 -14.002  0.00  0.00    +0.005 A 
ATOM     18  C   UNL     1     -20.385  10.933 -13.608  0.00  0.00    -0.033 A 
ATOM     28  C   UNL     1     -21.495  10.045 -13.308  0.00  0.00    +0.005 A 
ATOM     29  C   UNL     1     -21.357   8.641 -13.384  0.00  0.00    +0.013 A 
BRANCH  18  19
ATOM     19  C   UNL     1     -20.624  12.449 -13.475  0.00  0.00    +0.119 C 
BRANCH  19  20
ATOM     20  N   UNL     1     -20.711  13.009 -12.093  0.00  0.00    -0.302 NA
ATOM     21  C   UNL     1     -21.201  14.460 -12.091  0.00  0.00    +0.066 C 
ATOM     22  C   UNL     1     -21.308  15.022 -10.637  0.00  0.00    -0.064 C 
ATOM     23  N   UNL     1     -19.947  14.910  -9.948  0.00  0.00    +0.379 N 
ATOM     24  C   UNL     1     -20.029  15.491  -8.600  0.00  0.00    -0.096 C 
ATOM     25  H   UNL     1     -19.220  15.518 -10.535  0.00  0.00    -0.082 HD
ATOM     26  C   UNL     1     -19.451  13.471  -9.948  0.00  0.00    -0.064 C 
ATOM     27  C   UNL     1     -19.376  12.912 -11.396  0.00  0.00    +0.066 C 
ENDBRANCH  19  20
ENDBRANCH  18  19
ENDBRANCH  14  15
ENDBRANCH  12  13
TORSDOF 6
ENDMDL
MODEL 2
REMARK VINA RESULT:      -7.8      7.052     12.301
REMARK  Name = C:\Users\Docking\Desktop\test protocol\1iep_ligandH.pdb
REMARK  8 active torsions:
REMARK  status: ('A' for Active; 'I' for Inactive)
REMARK    1  A    between atoms: _5  and  _11
REMARK    2  A    between atoms: _19  and  _21
REMARK    3  A    between atoms: _22  and  _66
REMARK    4  A    between atoms: _27  and  _30
REMARK    5  A    between atoms: _32  and  _33
REMARK    6  A    between atoms: _38  and  _43
REMARK    7  A    between atoms: _43  and  _46
REMARK    8  A    between atoms: _53  and  _55
REMARK                            x       y       z     vdW  Elec       q    Type
REMARK                         _______ _______ _______ _____ _____    ______ ____
ROOT
ATOM     10  C   UNL     1     -24.752   2.772 -13.230  0.00  0.00    +0.038 A 
ATOM     11  C   UNL     1     -23.694   2.298 -12.413  0.00  0.00    +0.047 A 
ATOM     12  C   UNL     1     -22.396   1.964 -12.979  0.00  0.00    +0.035 A 
ATOM     32  C   UNL     1     -22.210   2.128 -14.383  0.00  0.00    +0.024 A 
ATOM     33  C   UNL     1     -23.274   2.608 -15.229  0.00  0.00    +0.007 A 
ATOM     34  C   UNL     1     -24.557   2.937 -14.676  0.00  0.00    -0.029 A 
ATOM     35  C   UNL     1     -25.664   3.441 -15.631  0.00  0.00    +0.045 C 
ENDROOT
BRANCH  10   9
ATOM      4  C   UNL     1     -29.228   1.629 -11.930  0.00  0.00    +0.077 A 
ATOM      5  C   UNL     1     -29.127   0.322 -12.513  0.00  0.00    +0.048 A 
ATOM      6  C   UNL     1     -27.908  -0.014 -13.144  0.00  0.00    +0.116 A 
ATOM      7  N   UNL     1     -26.875   0.896 -13.183  0.00  0.00    -0.223 NA
ATOM      8  C   UNL     1     -27.006   2.149 -12.612  0.00  0.00    +0.220 A 
ATOM      9  N   UNL     1     -25.977   3.078 -12.633  0.00  0.00    -0.283 N 
ATOM     36  H   UNL     1     -26.116   3.994 -12.207  0.00  0.00    +0.155 HD
ATOM     37  N   UNL     1     -28.160   2.495 -12.005  0.00  0.00    -0.214 NA
BRANCH   4   3
ATOM      1  C   UNL     1     -31.600   3.408  -9.378  0.00  0.00    +0.020 A 
ATOM      2  C   UNL     1     -30.390   2.949 -10.020  0.00  0.00    +0.013 A 
ATOM      3  C   UNL     1     -30.450   2.130 -11.225  0.00  0.00    +0.019 A 
ATOM     38  C   UNL     1     -31.761   1.792 -11.759  0.00  0.00    +0.120 A 
ATOM     39  N   UNL     1     -32.909   2.247 -11.118  0.00  0.00    -0.263 NA
ATOM     40  C   UNL     1     -32.863   3.034  -9.957  0.00  0.00    +0.111 A 
ENDBRANCH   4   3
ENDBRANCH  10   9
BRANCH  12  13
ATOM     13  N   UNL     1     -21.288   1.471 -12.201  0.00  0.00    -0.281 N 
ATOM     14  C   UNL     1     -20.229   2.192 -11.674  0.00  0.00    +0.248 C 
ATOM     30  O   UNL     1     -19.961   3.346 -11.976  0.00  0.00    -0.270 OA
ATOM     31  H   UNL     1     -21.283   0.468 -12.015  0.00  0.00    +0.155 HD
BRANCH  14  15
ATOM     15  C   UNL     1     -19.329   1.533 -10.679  0.00  0.00    +0.037 A 
ATOM     16  C   UNL     1     -19.423   0.096 -10.405  0.00  0.00    +0.013 A 
ATOM     17  C   UNL     1     -18.555  -0.512  -9.429  0.00  0.00    +0.005 A 
ATOM     18  C   UNL     1     -17.583   0.317  -8.719  0.00  0.00    -0.033 A 
ATOM     28  C   UNL     1     -17.508   1.739  -9.014  0.00  0.00    +0.005 A 
ATOM     29  C   UNL     1     -18.358   2.338  -9.970  0.00  0.00    +0.013 A 
BRANCH  18  19
ATOM     19  C   UNL     1     -16.632  -0.243  -7.646  0.00  0.00    +0.119 C 
BRANCH  19  20
ATOM     20  N   UNL     1     -17.252  -0.833  -6.422  0.00  0.00    -0.302 NA
ATOM     21  C   UNL     1     -16.633  -0.275  -5.138  0.00  0.00    +0.066 C 
ATOM     22  C   UNL     1     -17.309  -0.886  -3.867  0.00  0.00    -0.064 C 
ATOM     23  N   UNL     1     -17.186  -2.410  -3.910  0.00  0.00    +0.379 N 
ATOM     24  C   UNL     1     -17.770  -2.984  -2.689  0.00  0.00    -0.096 C 
ATOM     25  H   UNL     1     -16.100  -2.661  -3.917  0.00  0.00    -0.082 HD
ATOM     26  C   UNL     1     -17.798  -2.972  -5.186  0.00  0.00    -0.064 C 
ATOM     27  C   UNL     1     -17.139  -2.337  -6.442  0.00  0.00    +0.066 C 
ENDBRANCH  19  20
ENDBRANCH  18  19
ENDBRANCH  14  15
ENDBRANCH  12  13
TORSDOF 6
ENDMDL
MODEL 3
REMARK VINA RESULT:      -7.8      5.722      7.938
REMARK  Name = C:\Users\Docking\Desktop\test protocol\1iep_ligandH.pdb
REMARK  8 active torsions:
REMARK  status: ('A' for Active; 'I' for Inactive)
REMARK    1  A    between atoms: _5  and  _11
REMARK    2  A    between atoms: _19  and  _21
REMARK    3  A    between atoms: _22  and  _66
REMARK    4  A    between atoms: _27  and  _30
REMARK    5  A    between atoms: _32  and  _33
REMARK    6  A    between atoms: _38  and  _43
REMARK    7  A    between atoms: _43  and  _46
REMARK    8  A    between atoms: _53  and  _55
REMARK                            x       y       z     vdW  Elec       q    Type
REMARK                         _______ _______ _______ _____ _____    ______ ____
ROOT
ATOM     10  C   UNL     1     -16.952   1.621  -8.637  0.00  0.00    +0.038 A 
ATOM     11  C   UNL     1     -18.154   1.844  -9.356  0.00  0.00    +0.047 A 
ATOM     12  C   UNL     1     -18.286   2.968 -10.270  0.00  0.00    +0.035 A 
ATOM     32  C   UNL     1     -17.174   3.844 -10.429  0.00  0.00    +0.024 A 
ATOM     33  C   UNL     1     -15.945   3.633  -9.705  0.00  0.00    +0.007 A 
ATOM     34  C   UNL     1     -15.809   2.528  -8.801  0.00  0.00    -0.029 A 
ATOM     35  C   UNL     1     -14.470   2.354  -8.046  0.00  0.00    +0.045 C 
ENDROOT
BRANCH  10   9
ATOM      4  C   UNL     1     -17.657  -0.456  -4.368  0.00  0.00    +0.077 A 
ATOM      5  C   UNL     1     -18.192   0.749  -3.804  0.00  0.00    +0.048 A 
ATOM      6  C   UNL     1     -18.261   1.884  -4.643  0.00  0.00    +0.116 A 
ATOM      7  N   UNL     1     -17.826   1.807  -5.948  0.00  0.00    -0.223 NA
ATOM      8  C   UNL     1     -17.315   0.629  -6.461  0.00  0.00    +0.220 A 
ATOM      9  N   UNL     1     -16.879   0.526  -7.773  0.00  0.00    -0.283 N 
ATOM     36  H   UNL     1     -16.501  -0.359  -8.111  0.00  0.00    +0.155 HD
ATOM     37  N   UNL     1     -17.236  -0.468  -5.679  0.00  0.00    -0.214 NA
BRANCH   4   3
ATOM      1  C   UNL     1     -16.516  -3.164  -1.786  0.00  0.00    +0.020 A 
ATOM      2  C   UNL     1     -16.607  -1.903  -2.487  0.00  0.00    +0.013 A 
ATOM      3  C   UNL     1     -17.523  -1.740  -3.609  0.00  0.00    +0.019 A 
ATOM     38  C   UNL     1     -18.338  -2.879  -4.000  0.00  0.00    +0.120 A 
ATOM     39  N   UNL     1     -18.228  -4.081  -3.308  0.00  0.00    -0.263 NA
ATOM     40  C   UNL     1     -17.349  -4.251  -2.227  0.00  0.00    +0.111 A 
ENDBRANCH   4   3
ENDBRANCH  10   9
BRANCH  12  13
ATOM     13  N   UNL     1     -19.485   3.249 -11.021  0.00  0.00    -0.281 N 
ATOM     14  C   UNL     1     -19.739   2.974 -12.354  0.00  0.00    +0.248 C 
ATOM     30  O   UNL     1     -18.888   2.634 -13.164  0.00  0.00    -0.270 OA
ATOM     31  H   UNL     1     -20.238   3.707 -10.507  0.00  0.00    +0.155 HD
BRANCH  14  15
ATOM     15  C   UNL     1     -21.136   3.109 -12.867  0.00  0.00    +0.037 A 
ATOM     16  C   UNL     1     -21.422   3.816 -14.118  0.00  0.00    +0.013 A 
ATOM     17  C   UNL     1     -22.781   3.947 -14.580  0.00  0.00    +0.005 A 
ATOM     18  C   UNL     1     -23.865   3.368 -13.791  0.00  0.00    -0.033 A 
ATOM     28  C   UNL     1     -23.553   2.667 -12.556  0.00  0.00    +0.005 A 
ATOM     29  C   UNL     1     -22.222   2.538 -12.099  0.00  0.00    +0.013 A 
BRANCH  18  19
ATOM     19  C   UNL     1     -25.346   3.478 -14.197  0.00  0.00    +0.119 C 
BRANCH  19  20
ATOM     20  N   UNL     1     -25.745   2.867 -15.501  0.00  0.00    -0.302 NA
ATOM     21  C   UNL     1     -25.930   3.920 -16.596  0.00  0.00    +0.066 C 
ATOM     22  C   UNL     1     -26.325   3.262 -17.958  0.00  0.00    -0.064 C 
ATOM     23  N   UNL     1     -27.603   2.442 -17.774  0.00  0.00    +0.379 N 
ATOM     24  C   UNL     1     -28.009   1.869 -19.065  0.00  0.00    -0.096 C 
ATOM     25  H   UNL     1     -28.408   3.140 -17.445  0.00  0.00    -0.082 HD
ATOM     26  C   UNL     1     -27.429   1.394 -16.684  0.00  0.00    -0.064 C 
ATOM     27  C   UNL     1     -27.008   2.056 -15.342  0.00  0.00    +0.066 C 
ENDBRANCH  19  20
ENDBRANCH  18  19
ENDBRANCH  14  15
ENDBRANCH  12  13
TORSDOF 6
ENDMDL
MODEL 4
REMARK VINA RESULT:      -7.6      5.724      7.913
REMARK  Name = C:\Users\Docking\Desktop\test protocol\1iep_ligandH.pdb
REMARK  8 active torsions:
REMARK  status: ('A' for Active; 'I' for Inactive)
REMARK    1  A    between atoms: _5  and  _11
REMARK    2  A    between atoms: _19  and  _21
REMARK    3  A    between atoms: _22  and  _66
REMARK    4  A    between atoms: _27  and  _30
REMARK    5  A    between atoms: _32  and  _33
REMARK    6  A    between atoms: _38  and  _43
REMARK    7  A    between atoms: _43  and  _46
REMARK    8  A    between atoms: _53  and  _55
REMARK                            x       y       z     vdW  Elec       q    Type
REMARK                         _______ _______ _______ _____ _____    ______ ____
ROOT
ATOM     10  C   UNL     1     -16.163   1.687  -8.184  0.00  0.00    +0.038 A 
ATOM     11  C   UNL     1     -17.309   1.886  -8.996  0.00  0.00    +0.047 A 
ATOM     12  C   UNL     1     -17.389   3.004  -9.923  0.00  0.00    +0.035 A 
ATOM     32  C   UNL     1     -16.282   3.899 -10.000  0.00  0.00    +0.024 A 
ATOM     33  C   UNL     1     -15.110   3.712  -9.181  0.00  0.00    +0.007 A 
ATOM     34  C   UNL     1     -15.026   2.612  -8.263  0.00  0.00    -0.029 A 
ATOM     35  C   UNL     1     -13.747   2.464  -7.406  0.00  0.00    +0.045 C 
ENDROOT
BRANCH  10   9
ATOM      4  C   UNL     1     -17.314  -0.442  -4.040  0.00  0.00    +0.077 A 
ATOM      5  C   UNL     1     -17.998   0.725  -3.561  0.00  0.00    +0.048 A 
ATOM      6  C   UNL     1     -18.024   1.854  -4.410  0.00  0.00    +0.116 A 
ATOM      7  N   UNL     1     -17.409   1.809  -5.642  0.00  0.00    -0.223 NA
ATOM      8  C   UNL     1     -16.757   0.668  -6.072  0.00  0.00    +0.220 A 
ATOM      9  N   UNL     1     -16.139   0.597  -7.311  0.00  0.00    -0.283 N 
ATOM     36  H   UNL     1     -15.663  -0.261  -7.589  0.00  0.00    +0.155 HD
ATOM     37  N   UNL     1     -16.717  -0.424  -5.280  0.00  0.00    -0.214 NA
BRANCH   4   3
ATOM      1  C   UNL     1     -16.126  -3.180  -1.511  0.00  0.00    +0.020 A 
ATOM      2  C   UNL     1     -16.190  -1.932  -2.235  0.00  0.00    +0.013 A 
ATOM      3  C   UNL     1     -17.203  -1.716  -3.260  0.00  0.00    +0.019 A 
ATOM     38  C   UNL     1     -18.144  -2.792  -3.531  0.00  0.00    +0.120 A 
ATOM     39  N   UNL     1     -18.058  -3.985  -2.819  0.00  0.00    -0.263 NA
ATOM     40  C   UNL     1     -17.086  -4.204  -1.831  0.00  0.00    +0.111 A 
ENDBRANCH   4   3
ENDBRANCH  10   9
BRANCH  12  13
ATOM     13  N   UNL     1     -18.530   3.262 -10.766  0.00  0.00    -0.281 N 
ATOM     14  C   UNL     1     -18.808   2.723 -12.011  0.00  0.00    +0.248 C 
ATOM     30  O   UNL     1     -18.006   2.095 -12.687  0.00  0.00    -0.270 OA
ATOM     31  H   UNL     1     -19.216   3.923 -10.400  0.00  0.00    +0.155 HD
BRANCH  14  15
ATOM     15  C   UNL     1     -20.168   2.922 -12.597  0.00  0.00    +0.037 A 
ATOM     16  C   UNL     1     -20.368   3.748 -13.791  0.00  0.00    +0.013 A 
ATOM     17  C   UNL     1     -21.693   3.937 -14.325  0.00  0.00    +0.005 A 
ATOM     18  C   UNL     1     -22.829   3.297 -13.667  0.00  0.00    -0.033 A 
ATOM     28  C   UNL     1     -22.602   2.479 -12.488  0.00  0.00    +0.005 A 
ATOM     29  C   UNL     1     -21.305   2.292 -11.960  0.00  0.00    +0.013 A 
BRANCH  18  19
ATOM     19  C   UNL     1     -24.281   3.461 -14.156  0.00  0.00    +0.119 C 
BRANCH  19  20
ATOM     20  N   UNL     1     -25.245   2.373 -13.814  0.00  0.00    -0.302 NA
ATOM     21  C   UNL     1     -26.317   2.196 -14.893  0.00  0.00    +0.066 C 
ATOM     22  C   UNL     1     -27.303   1.038 -14.531  0.00  0.00    -0.064 C 
ATOM     23  N   UNL     1     -27.944   1.325 -13.172  0.00  0.00    +0.379 N 
ATOM     24  C   UNL     1     -28.916   0.268 -12.855  0.00  0.00    -0.096 C 
ATOM     25  H   UNL     1     -28.505   2.285 -13.259  0.00  0.00    -0.082 HD
ATOM     26  C   UNL     1     -26.885   1.506 -12.094  0.00  0.00    -0.064 C 
ATOM     27  C   UNL     1     -25.893   2.639 -12.478  0.00  0.00    +0.066 C 
ENDBRANCH  19  20
ENDBRANCH  18  19
ENDBRANCH  14  15
ENDBRANCH  12  13
TORSDOF 6
ENDMDL
MODEL 5
REMARK VINA RESULT:      -7.5      5.022      7.202
REMARK  Name = C:\Users\Docking\Desktop\test protocol\1iep_ligandH.pdb
REMARK  8 active torsions:
REMARK  status: ('A' for Active; 'I' for Inactive)
REMARK    1  A    between atoms: _5  and  _11
REMARK    2  A    between atoms: _19  and  _21
REMARK    3  A    between atoms: _22  and  _66
REMARK    4  A    between atoms: _27  and  _30
REMARK    5  A    between atoms: _32  and  _33
REMARK    6  A    between atoms: _38  and  _43
REMARK    7  A    between atoms: _43  and  _46
REMARK    8  A    between atoms: _53  and  _55
REMARK                            x       y       z     vdW  Elec       q    Type
REMARK                         _______ _______ _______ _____ _____    ______ ____
ROOT
ATOM     10  C   UNL     1     -15.231   1.988  -7.902  0.00  0.00    +0.038 A 
ATOM     11  C   UNL     1     -16.227   2.348  -8.846  0.00  0.00    +0.047 A 
ATOM     12  C   UNL     1     -16.084   3.532  -9.678  0.00  0.00    +0.035 A 
ATOM     32  C   UNL     1     -14.910   4.327  -9.525  0.00  0.00    +0.024 A 
ATOM     33  C   UNL     1     -13.888   3.977  -8.570  0.00  0.00    +0.007 A 
ATOM     34  C   UNL     1     -14.026   2.811  -7.745  0.00  0.00    -0.029 A 
ATOM     35  C   UNL     1     -12.901   2.488  -6.734  0.00  0.00    +0.045 C 
ENDROOT
BRANCH  10   9
ATOM      4  C   UNL     1     -17.309  -0.380  -4.282  0.00  0.00    +0.077 A 
ATOM      5  C   UNL     1     -18.061   0.774  -3.880  0.00  0.00    +0.048 A 
ATOM      6  C   UNL     1     -17.878   1.959  -4.627  0.00  0.00    +0.116 A 
ATOM      7  N   UNL     1     -17.007   1.977  -5.695  0.00  0.00    -0.223 NA
ATOM      8  C   UNL     1     -16.296   0.847  -6.054  0.00  0.00    +0.220 A 
ATOM      9  N   UNL     1     -15.421   0.841  -7.129  0.00  0.00    -0.283 N 
ATOM     36  H   UNL     1     -14.909  -0.011  -7.358  0.00  0.00    +0.155 HD
ATOM     37  N   UNL     1     -16.452  -0.297  -5.356  0.00  0.00    -0.214 NA
BRANCH   4   3
ATOM      1  C   UNL     1     -16.711  -3.346  -1.802  0.00  0.00    +0.020 A 
ATOM      2  C   UNL     1     -16.589  -2.050  -2.429  0.00  0.00    +0.013 A 
ATOM      3  C   UNL     1     -17.395  -1.707  -3.594  0.00  0.00    +0.019 A 
ATOM     38  C   UNL     1     -18.324  -2.706  -4.102  0.00  0.00    +0.120 A 
ATOM     39  N   UNL     1     -18.419  -3.946  -3.478  0.00  0.00    -0.263 NA
ATOM     40  C   UNL     1     -17.647  -4.287  -2.358  0.00  0.00    +0.111 A 
ENDBRANCH   4   3
ENDBRANCH  10   9
BRANCH  12  13
ATOM     13  N   UNL     1     -17.066   3.951 -10.647  0.00  0.00    -0.281 N 
ATOM     14  C   UNL     1     -17.271   3.450 -11.922  0.00  0.00    +0.248 C 
ATOM     30  O   UNL     1     -16.497   2.705 -12.505  0.00  0.00    -0.270 OA
ATOM     31  H   UNL     1     -17.684   4.708 -10.358  0.00  0.00    +0.155 HD
BRANCH  14  15
ATOM     15  C   UNL     1     -18.508   3.845 -12.663  0.00  0.00    +0.037 A 
ATOM     16  C   UNL     1     -19.597   2.891 -12.887  0.00  0.00    +0.013 A 
ATOM     17  C   UNL     1     -20.772   3.293 -13.619  0.00  0.00    +0.005 A 
ATOM     18  C   UNL     1     -20.864   4.658 -14.131  0.00  0.00    -0.033 A 
ATOM     28  C   UNL     1     -19.772   5.586 -13.889  0.00  0.00    +0.005 A 
ATOM     29  C   UNL     1     -18.618   5.195 -13.173  0.00  0.00    +0.013 A 
BRANCH  18  19
ATOM     19  C   UNL     1     -22.071   5.168 -14.940  0.00  0.00    +0.119 C 
BRANCH  19  20
ATOM     20  N   UNL     1     -23.161   4.189 -15.233  0.00  0.00    -0.302 NA
ATOM     21  C   UNL     1     -23.766   4.403 -16.623  0.00  0.00    +0.066 C 
ATOM     22  C   UNL     1     -24.889   3.356 -16.922  0.00  0.00    -0.064 C 
ATOM     23  N   UNL     1     -25.968   3.448 -15.841  0.00  0.00    +0.379 N 
ATOM     24  C   UNL     1     -27.053   2.505 -16.151  0.00  0.00    -0.096 C 
ATOM     25  H   UNL     1     -26.393   4.477 -15.875  0.00  0.00    -0.082 HD
ATOM     26  C   UNL     1     -25.374   3.240 -14.455  0.00  0.00    -0.064 C 
ATOM     27  C   UNL     1     -24.239   4.266 -14.180  0.00  0.00    +0.066 C 
ENDBRANCH  19  20
ENDBRANCH  18  19
ENDBRANCH  14  15
ENDBRANCH  12  13
TORSDOF 6
ENDMDL
