MODEL 1
REMARK VINA RESULT:      -8.2      0.000      0.000
REMARK  Name = C:\Users\Docking\Desktop\test protocol\1iep_ligandH.pdb
REMARK  8 active torsions:
REMARK  status: ('A' for Active; 'I' for Inactive)
REMARK    1  A    between atoms: _5  and  _11
REMARK    2  A    between atoms: _19  and  _21
REMARK    3  A    between atoms: _22  and  _66
REMARK    4  A    between atoms: _27  and  _30
REMARK    5  A    between atoms: _32  and  _33
REMARK    6  A    between atoms: _38  and  _43
REMARK    7  A    between atoms: _43  and  _46
REMARK    8  A    between atoms: _53  and  _55
REMARK                            x       y       z     vdW  Elec       q    Type
REMARK                         _______ _______ _______ _____ _____    ______ ____
ROOT
ATOM     10  C   UNL     1       8.749  14.567   5.669  0.00  0.00    +0.038 A 
ATOM     11  C   UNL     1       9.180  13.724   4.613  0.00  0.00    +0.047 A 
ATOM     12  C   UNL     1       9.975  14.245   3.512  0.00  0.00    +0.035 A 
ATOM     32  C   UNL     1      10.315  15.629   3.520  0.00  0.00    +0.024 A 
ATOM     33  C   UNL     1       9.884  16.500   4.585  0.00  0.00    +0.007 A 
ATOM     34  C   UNL     1       9.098  15.992   5.673  0.00  0.00    -0.029 A 
ATOM     35  C   UNL     1       8.658  16.973   6.784  0.00  0.00    +0.045 C 
ENDROOT
BRANCH  10   9
ATOM      4  C   UNL     1       4.550  13.615   7.790  0.00  0.00    +0.077 A 
ATOM      5  C   UNL     1       3.811  14.300   6.769  0.00  0.00    +0.048 A 
ATOM      6  C   UNL     1       4.550  14.890   5.720  0.00  0.00    +0.116 A 
ATOM      7  N   UNL     1       5.925  14.795   5.702  0.00  0.00    -0.223 NA
ATOM      8  C   UNL     1       6.606  14.128   6.703  0.00  0.00    +0.220 A 
ATOM      9  N   UNL     1       7.988  14.013   6.702  0.00  0.00    -0.283 N 
ATOM     36  H   UNL     1       8.453  13.520   7.463  0.00  0.00    +0.155 HD
ATOM     37  N   UNL     1       5.923  13.557   7.718  0.00  0.00    -0.214 NA
BRANCH   4   3
ATOM      1  C   UNL     1       2.388  11.208   9.990  0.00  0.00    +0.020 A 
ATOM      2  C   UNL     1       2.976  11.828   8.825  0.00  0.00    +0.013 A 
ATOM      3  C   UNL     1       3.911  12.937   8.963  0.00  0.00    +0.019 A 
ATOM     38  C   UNL     1       4.233  13.399  10.305  0.00  0.00    +0.120 A 
ATOM     39  N   UNL     1       3.650  12.783  11.408  0.00  0.00    -0.263 NA
ATOM     40  C   UNL     1       2.747  11.716  11.287  0.00  0.00    +0.111 A 
ENDBRANCH   4   3
ENDBRANCH  10   9
BRANCH  12  13
ATOM     13  N   UNL     1      10.434  13.439   2.408  0.00  0.00    -0.281 N 
ATOM     14  C   UNL     1      11.629  12.748   2.298  0.00  0.00    +0.248 C 
ATOM     30  O   UNL     1      12.583  12.891   3.049  0.00  0.00    -0.270 OA
ATOM     31  H   UNL     1       9.802  13.371   1.610  0.00  0.00    +0.155 HD
BRANCH  14  15
ATOM     15  C   UNL     1      11.795  11.765   1.184  0.00  0.00    +0.037 A 
ATOM     16  C   UNL     1      12.536  12.111  -0.031  0.00  0.00    +0.013 A 
ATOM     17  C   UNL     1      12.667  11.150  -1.098  0.00  0.00    +0.005 A 
ATOM     18  C   UNL     1      12.054   9.832  -0.953  0.00  0.00    -0.033 A 
ATOM     28  C   UNL     1      11.329   9.513   0.266  0.00  0.00    +0.005 A 
ATOM     29  C   UNL     1      11.198  10.452   1.313  0.00  0.00    +0.013 A 
BRANCH  18  19
ATOM     19  C   UNL     1      12.124   8.752  -2.048  0.00  0.00    +0.119 C 
BRANCH  19  20
ATOM     20  N   UNL     1      10.867   8.008  -2.357  0.00  0.00    -0.302 NA
ATOM     21  C   UNL     1      11.013   6.504  -2.109  0.00  0.00    +0.066 C 
ATOM     22  C   UNL     1       9.681   5.745  -2.415  0.00  0.00    -0.064 C 
ATOM     23  N   UNL     1       9.263   6.017  -3.861  0.00  0.00    +0.379 N 
ATOM     24  C   UNL     1       8.043   5.258  -4.171  0.00  0.00    -0.096 C 
ATOM     25  H   UNL     1      10.075   5.638  -4.525  0.00  0.00    -0.082 HD
ATOM     26  C   UNL     1       9.118   7.510  -4.118  0.00  0.00    -0.064 C 
ATOM     27  C   UNL     1      10.438   8.259  -3.782  0.00  0.00    +0.066 C 
ENDBRANCH  19  20
ENDBRANCH  18  19
ENDBRANCH  14  15
ENDBRANCH  12  13
TORSDOF 6
ENDMDL
MODEL 2
REMARK VINA RESULT:      -7.7      2.661     11.178
REMARK  Name = C:\Users\Docking\Desktop\test protocol\1iep_ligandH.pdb
REMARK  8 active torsions:
REMARK  status: ('A' for Active; 'I' for Inactive)
REMARK    1  A    between atoms: _5  and  _11
REMARK    2  A    between atoms: _19  and  _21
REMARK    3  A    between atoms: _22  and  _66
REMARK    4  A    between atoms: _27  and  _30
REMARK    5  A    between atoms: _32  and  _33
REMARK    6  A    between atoms: _38  and  _43
REMARK    7  A    between atoms: _43  and  _46
REMARK    8  A    between atoms: _53  and  _55
REMARK                            x       y       z     vdW  Elec       q    Type
REMARK                         _______ _______ _______ _____ _____    ______ ____
ROOT
ATOM     10  C   UNL     1      11.666  10.717   1.388  0.00  0.00    +0.038 A 
ATOM     11  C   UNL     1      11.122  11.414   2.497  0.00  0.00    +0.047 A 
ATOM     12  C   UNL     1      11.797  12.570   3.065  0.00  0.00    +0.035 A 
ATOM     32  C   UNL     1      13.025  12.991   2.476  0.00  0.00    +0.024 A 
ATOM     33  C   UNL     1      13.594  12.294   1.350  0.00  0.00    +0.007 A 
ATOM     34  C   UNL     1      12.933  11.151   0.787  0.00  0.00    -0.029 A 
ATOM     35  C   UNL     1      13.592  10.438  -0.417  0.00  0.00    +0.045 C 
ENDROOT
BRANCH  10   9
ATOM      4  C   UNL     1      10.363   6.100   1.555  0.00  0.00    +0.077 A 
ATOM      5  C   UNL     1      11.147   5.860   2.732  0.00  0.00    +0.048 A 
ATOM      6  C   UNL     1      11.876   6.950   3.259  0.00  0.00    +0.116 A 
ATOM      7  N   UNL     1      11.818   8.183   2.647  0.00  0.00    -0.223 NA
ATOM      8  C   UNL     1      11.054   8.380   1.511  0.00  0.00    +0.220 A 
ATOM      9  N   UNL     1      10.975   9.613   0.883  0.00  0.00    -0.283 N 
ATOM     36  H   UNL     1      10.406   9.716   0.044  0.00  0.00    +0.155 HD
ATOM     37  N   UNL     1      10.349   7.355   0.988  0.00  0.00    -0.214 NA
BRANCH   4   3
ATOM      1  C   UNL     1       7.678   3.343   0.855  0.00  0.00    +0.020 A 
ATOM      2  C   UNL     1       8.448   4.348   1.551  0.00  0.00    +0.013 A 
ATOM      3  C   UNL     1       9.535   5.051   0.881  0.00  0.00    +0.019 A 
ATOM     38  C   UNL     1       9.819   4.710  -0.505  0.00  0.00    +0.120 A 
ATOM     39  N   UNL     1       9.062   3.737  -1.149  0.00  0.00    -0.263 NA
ATOM     40  C   UNL     1       8.015   3.053  -0.514  0.00  0.00    +0.111 A 
ENDBRANCH   4   3
ENDBRANCH  10   9
BRANCH  12  13
ATOM     13  N   UNL     1      11.297  13.312   4.195  0.00  0.00    -0.281 N 
ATOM     14  C   UNL     1      10.637  14.531   4.189  0.00  0.00    +0.248 C 
ATOM     30  O   UNL     1      10.567  15.273   3.222  0.00  0.00    -0.270 OA
ATOM     31  H   UNL     1      11.446  12.888   5.111  0.00  0.00    +0.155 HD
BRANCH  14  15
ATOM     15  C   UNL     1       9.973  14.998   5.444  0.00  0.00    +0.037 A 
ATOM     16  C   UNL     1      10.205  14.324   6.724  0.00  0.00    +0.013 A 
ATOM     17  C   UNL     1       9.538  14.784   7.916  0.00  0.00    +0.005 A 
ATOM     18  C   UNL     1       8.632  15.927   7.833  0.00  0.00    -0.033 A 
ATOM     28  C   UNL     1       8.424  16.581   6.551  0.00  0.00    +0.005 A 
ATOM     29  C   UNL     1       9.075  16.131   5.381  0.00  0.00    +0.013 A 
BRANCH  18  19
ATOM     19  C   UNL     1       7.862  16.474   9.050  0.00  0.00    +0.119 C 
BRANCH  19  20
ATOM     20  N   UNL     1       6.641  15.727   9.477  0.00  0.00    -0.302 NA
ATOM     21  C   UNL     1       6.958  14.665  10.534  0.00  0.00    +0.066 C 
ATOM     22  C   UNL     1       5.666  13.910  10.987  0.00  0.00    -0.064 C 
ATOM     23  N   UNL     1       4.996  13.276   9.767  0.00  0.00    +0.379 N 
ATOM     24  C   UNL     1       3.813  12.516  10.196  0.00  0.00    -0.096 C 
ATOM     25  H   UNL     1       5.718  12.554   9.321  0.00  0.00    -0.082 HD
ATOM     26  C   UNL     1       4.680  14.324   8.709  0.00  0.00    -0.064 C 
ATOM     27  C   UNL     1       5.965  15.090   8.288  0.00  0.00    +0.066 C 
ENDBRANCH  19  20
ENDBRANCH  18  19
ENDBRANCH  14  15
ENDBRANCH  12  13
TORSDOF 6
ENDMDL
MODEL 3
REMARK VINA RESULT:      -7.6      7.074     13.659
REMARK  Name = C:\Users\Docking\Desktop\test protocol\1iep_ligandH.pdb
REMARK  8 active torsions:
REMARK  status: ('A' for Active; 'I' for Inactive)
REMARK    1  A    between atoms: _5  and  _11
REMARK    2  A    between atoms: _19  and  _21
REMARK    3  A    between atoms: _22  and  _66
REMARK    4  A    between atoms: _27  and  _30
REMARK    5  A    between atoms: _32  and  _33
REMARK    6  A    between atoms: _38  and  _43
REMARK    7  A    between atoms: _43  and  _46
REMARK    8  A    between atoms: _53  and  _55
REMARK                            x       y       z     vdW  Elec       q    Type
REMARK                         _______ _______ _______ _____ _____    ______ ____
ROOT
ATOM     10  C   UNL     1       7.449  14.566   8.521  0.00  0.00    +0.038 A 
ATOM     11  C   UNL     1       7.608  15.551   9.530  0.00  0.00    +0.047 A 
ATOM     12  C   UNL     1       8.359  16.771   9.278  0.00  0.00    +0.035 A 
ATOM     32  C   UNL     1       8.932  16.958   7.987  0.00  0.00    +0.024 A 
ATOM     33  C   UNL     1       8.780  15.967   6.950  0.00  0.00    +0.007 A 
ATOM     34  C   UNL     1       8.043  14.760   7.193  0.00  0.00    -0.029 A 
ATOM     35  C   UNL     1       7.918  13.730   6.047  0.00  0.00    +0.045 C 
ENDROOT
BRANCH  10   9
ATOM      4  C   UNL     1       3.470  11.894   8.265  0.00  0.00    +0.077 A 
ATOM      5  C   UNL     1       2.779  12.891   7.498  0.00  0.00    +0.048 A 
ATOM      6  C   UNL     1       3.481  14.080   7.198  0.00  0.00    +0.116 A 
ATOM      7  N   UNL     1       4.776  14.249   7.635  0.00  0.00    -0.223 NA
ATOM      8  C   UNL     1       5.413  13.268   8.374  0.00  0.00    +0.220 A 
ATOM      9  N   UNL     1       6.718  13.413   8.818  0.00  0.00    -0.283 N 
ATOM     36  H   UNL     1       7.150  12.670   9.366  0.00  0.00    +0.155 HD
ATOM     37  N   UNL     1       4.764  12.124   8.676  0.00  0.00    -0.214 NA
BRANCH   4   3
ATOM      1  C   UNL     1       0.950   9.164   9.487  0.00  0.00    +0.020 A 
ATOM      2  C   UNL     1       1.486  10.453   9.118  0.00  0.00    +0.013 A 
ATOM      3  C   UNL     1       2.864  10.583   8.660  0.00  0.00    +0.019 A 
ATOM     38  C   UNL     1       3.678   9.379   8.585  0.00  0.00    +0.120 A 
ATOM     39  N   UNL     1       3.134   8.151   8.949  0.00  0.00    -0.263 NA
ATOM     40  C   UNL     1       1.810   8.014   9.393  0.00  0.00    +0.111 A 
ENDBRANCH   4   3
ENDBRANCH  10   9
BRANCH  12  13
ATOM     13  N   UNL     1       8.561  17.802  10.266  0.00  0.00    -0.281 N 
ATOM     14  C   UNL     1       9.241  17.707  11.469  0.00  0.00    +0.248 C 
ATOM     30  O   UNL     1       9.599  16.656  11.980  0.00  0.00    -0.270 OA
ATOM     31  H   UNL     1       8.153  18.712  10.052  0.00  0.00    +0.155 HD
BRANCH  14  15
ATOM     15  C   UNL     1       9.557  18.960  12.221  0.00  0.00    +0.037 A 
ATOM     16  C   UNL     1       8.518  19.946  12.525  0.00  0.00    +0.013 A 
ATOM     17  C   UNL     1       8.853  21.155  13.236  0.00  0.00    +0.005 A 
ATOM     18  C   UNL     1      10.236  21.382  13.650  0.00  0.00    -0.033 A 
ATOM     28  C   UNL     1      11.246  20.384  13.339  0.00  0.00    +0.005 A 
ATOM     29  C   UNL     1      10.921  19.199  12.641  0.00  0.00    +0.013 A 
BRANCH  18  19
ATOM     19  C   UNL     1      10.688  22.652  14.394  0.00  0.00    +0.119 C 
BRANCH  19  20
ATOM     20  N   UNL     1      11.849  23.401  13.826  0.00  0.00    -0.302 NA
ATOM     21  C   UNL     1      12.344  24.497  14.774  0.00  0.00    +0.066 C 
ATOM     22  C   UNL     1      13.573  25.255  14.174  0.00  0.00    -0.064 C 
ATOM     23  N   UNL     1      13.190  25.845  12.815  0.00  0.00    +0.379 N 
ATOM     24  C   UNL     1      14.325  26.608  12.275  0.00  0.00    -0.096 C 
ATOM     25  H   UNL     1      12.351  26.560  12.982  0.00  0.00    -0.082 HD
ATOM     26  C   UNL     1      12.694  24.762  11.868  0.00  0.00    -0.064 C 
ATOM     27  C   UNL     1      11.492  23.996  12.486  0.00  0.00    +0.066 C 
ENDBRANCH  19  20
ENDBRANCH  18  19
ENDBRANCH  14  15
ENDBRANCH  12  13
TORSDOF 6
ENDMDL
MODEL 4
REMARK VINA RESULT:      -7.6     14.043     19.080
REMARK  Name = C:\Users\Docking\Desktop\test protocol\1iep_ligandH.pdb
REMARK  8 active torsions:
REMARK  status: ('A' for Active; 'I' for Inactive)
REMARK    1  A    between atoms: _5  and  _11
REMARK    2  A    between atoms: _19  and  _21
REMARK    3  A    between atoms: _22  and  _66
REMARK    4  A    between atoms: _27  and  _30
REMARK    5  A    between atoms: _32  and  _33
REMARK    6  A    between atoms: _38  and  _43
REMARK    7  A    between atoms: _43  and  _46
REMARK    8  A    between atoms: _53  and  _55
REMARK                            x       y       z     vdW  Elec       q    Type
REMARK                         _______ _______ _______ _____ _____    ______ ____
ROOT
ATOM     10  C   UNL     1      12.467  23.065  14.063  0.00  0.00    +0.038 A 
ATOM     11  C   UNL     1      12.629  24.301  13.387  0.00  0.00    +0.047 A 
ATOM     12  C   UNL     1      13.770  25.162  13.657  0.00  0.00    +0.035 A 
ATOM     32  C   UNL     1      14.728  24.732  14.621  0.00  0.00    +0.024 A 
ATOM     33  C   UNL     1      14.578  23.479  15.319  0.00  0.00    +0.007 A 
ATOM     34  C   UNL     1      13.453  22.626  15.058  0.00  0.00    -0.029 A 
ATOM     35  C   UNL     1      13.340  21.297  15.840  0.00  0.00    +0.045 C 
ENDROOT
BRANCH  10   9
ATOM      4  C   UNL     1       7.857  21.860  14.642  0.00  0.00    +0.077 A 
ATOM      5  C   UNL     1       7.658  22.867  15.644  0.00  0.00    +0.048 A 
ATOM      6  C   UNL     1       8.769  23.670  15.986  0.00  0.00    +0.116 A 
ATOM      7  N   UNL     1       9.984  23.471  15.367  0.00  0.00    -0.223 NA
ATOM      8  C   UNL     1      10.142  22.489  14.406  0.00  0.00    +0.220 A 
ATOM      9  N   UNL     1      11.353  22.277  13.765  0.00  0.00    -0.283 N 
ATOM     36  H   UNL     1      11.431  21.537  13.067  0.00  0.00    +0.155 HD
ATOM     37  N   UNL     1       9.097  21.709  14.062  0.00  0.00    -0.214 NA
BRANCH   4   3
ATOM      1  C   UNL     1       4.360  20.262  13.922  0.00  0.00    +0.020 A 
ATOM      2  C   UNL     1       5.362  21.188  14.399  0.00  0.00    +0.013 A 
ATOM      3  C   UNL     1       6.779  20.935  14.170  0.00  0.00    +0.019 A 
ATOM     38  C   UNL     1       7.151  19.727  13.448  0.00  0.00    +0.120 A 
ATOM     39  N   UNL     1       6.164  18.854  13.002  0.00  0.00    -0.263 NA
ATOM     40  C   UNL     1       4.798  19.086  13.218  0.00  0.00    +0.111 A 
ENDBRANCH   4   3
ENDBRANCH  10   9
BRANCH  12  13
ATOM     13  N   UNL     1      13.983  26.432  13.008  0.00  0.00    -0.281 N 
ATOM     14  C   UNL     1      13.532  26.838  11.762  0.00  0.00    +0.248 C 
ATOM     30  O   UNL     1      13.053  26.089  10.923  0.00  0.00    -0.270 OA
ATOM     31  H   UNL     1      14.534  27.114  13.529  0.00  0.00    +0.155 HD
BRANCH  14  15
ATOM     15  C   UNL     1      13.641  28.281  11.390  0.00  0.00    +0.037 A 
ATOM     16  C   UNL     1      14.764  29.102  11.850  0.00  0.00    +0.013 A 
ATOM     17  C   UNL     1      14.837  30.496  11.491  0.00  0.00    +0.005 A 
ATOM     18  C   UNL     1      13.782  31.078  10.664  0.00  0.00    -0.033 A 
ATOM     28  C   UNL     1      12.682  30.240  10.217  0.00  0.00    +0.005 A 
ATOM     29  C   UNL     1      12.607  28.873  10.569  0.00  0.00    +0.013 A 
BRANCH  18  19
ATOM     19  C   UNL     1      13.767  32.561  10.250  0.00  0.00    +0.119 C 
BRANCH  19  20
ATOM     20  N   UNL     1      14.188  32.886   8.855  0.00  0.00    -0.302 NA
ATOM     21  C   UNL     1      15.459  33.739   8.823  0.00  0.00    +0.066 C 
ATOM     22  C   UNL     1      15.898  34.051   7.355  0.00  0.00    -0.064 C 
ATOM     23  N   UNL     1      14.755  34.754   6.622  0.00  0.00    +0.379 N 
ATOM     24  C   UNL     1      15.185  35.100   5.259  0.00  0.00    -0.096 C 
ATOM     25  H   UNL     1      14.542  35.706   7.161  0.00  0.00    -0.082 HD
ATOM     26  C   UNL     1      13.486  33.914   6.651  0.00  0.00    -0.064 C 
ATOM     27  C   UNL     1      13.075  33.585   8.114  0.00  0.00    +0.066 C 
ENDBRANCH  19  20
ENDBRANCH  18  19
ENDBRANCH  14  15
ENDBRANCH  12  13
TORSDOF 6
ENDMDL
MODEL 5
REMARK VINA RESULT:      -7.6      5.513      8.419
REMARK  Name = C:\Users\Docking\Desktop\test protocol\1iep_ligandH.pdb
REMARK  8 active torsions:
REMARK  status: ('A' for Active; 'I' for Inactive)
REMARK    1  A    between atoms: _5  and  _11
REMARK    2  A    between atoms: _19  and  _21
REMARK    3  A    between atoms: _22  and  _66
REMARK    4  A    between atoms: _27  and  _30
REMARK    5  A    between atoms: _32  and  _33
REMARK    6  A    between atoms: _38  and  _43
REMARK    7  A    between atoms: _43  and  _46
REMARK    8  A    between atoms: _53  and  _55
REMARK                            x       y       z     vdW  Elec       q    Type
REMARK                         _______ _______ _______ _____ _____    ______ ____
ROOT
ATOM     10  C   UNL     1       7.460  17.447  10.267  0.00  0.00    +0.038 A 
ATOM     11  C   UNL     1       8.192  16.989   9.142  0.00  0.00    +0.047 A 
ATOM     12  C   UNL     1       7.921  15.690   8.545  0.00  0.00    +0.035 A 
ATOM     32  C   UNL     1       6.895  14.884   9.118  0.00  0.00    +0.024 A 
ATOM     33  C   UNL     1       6.141  15.333  10.262  0.00  0.00    +0.007 A 
ATOM     34  C   UNL     1       6.406  16.613  10.857  0.00  0.00    -0.029 A 
ATOM     35  C   UNL     1       5.571  17.040  12.086  0.00  0.00    +0.045 C 
ENDROOT
BRANCH  10   9
ATOM      4  C   UNL     1      10.075  20.340  13.064  0.00  0.00    +0.077 A 
ATOM      5  C   UNL     1      10.892  19.255  13.524  0.00  0.00    +0.048 A 
ATOM      6  C   UNL     1      10.602  17.966  13.022  0.00  0.00    +0.116 A 
ATOM      7  N   UNL     1       9.570  17.788  12.127  0.00  0.00    -0.223 NA
ATOM      8  C   UNL     1       8.800  18.857  11.705  0.00  0.00    +0.220 A 
ATOM      9  N   UNL     1       7.761  18.702  10.800  0.00  0.00    -0.283 N 
ATOM     36  H   UNL     1       7.212  19.514  10.519  0.00  0.00    +0.155 HD
ATOM     37  N   UNL     1       9.055  20.097  12.171  0.00  0.00    -0.214 NA
BRANCH   4   3
ATOM      1  C   UNL     1      10.164  24.251  13.109  0.00  0.00    +0.020 A 
ATOM      2  C   UNL     1       9.969  22.898  12.638  0.00  0.00    +0.013 A 
ATOM      3  C   UNL     1      10.259  21.760  13.501  0.00  0.00    +0.019 A 
ATOM     38  C   UNL     1      10.749  22.027  14.845  0.00  0.00    +0.120 A 
ATOM     39  N   UNL     1      10.928  23.339  15.270  0.00  0.00    -0.263 NA
ATOM     40  C   UNL     1      10.653  24.442  14.448  0.00  0.00    +0.111 A 
ENDBRANCH   4   3
ENDBRANCH  10   9
BRANCH  12  13
ATOM     13  N   UNL     1       8.638  15.169   7.408  0.00  0.00    -0.281 N 
ATOM     14  C   UNL     1       8.781  15.744   6.155  0.00  0.00    +0.248 C 
ATOM     30  O   UNL     1       8.132  16.699   5.755  0.00  0.00    -0.270 OA
ATOM     31  H   UNL     1       9.095  14.267   7.542  0.00  0.00    +0.155 HD
BRANCH  14  15
ATOM     15  C   UNL     1       9.780  15.165   5.206  0.00  0.00    +0.037 A 
ATOM     16  C   UNL     1      11.200  15.077   5.556  0.00  0.00    +0.013 A 
ATOM     17  C   UNL     1      12.144  14.530   4.615  0.00  0.00    +0.005 A 
ATOM     18  C   UNL     1      11.671  14.065   3.313  0.00  0.00    -0.033 A 
ATOM     28  C   UNL     1      10.256  14.160   2.993  0.00  0.00    +0.005 A 
ATOM     29  C   UNL     1       9.327  14.696   3.913  0.00  0.00    +0.013 A 
BRANCH  18  19
ATOM     19  C   UNL     1      12.611  13.487   2.239  0.00  0.00    +0.119 C 
BRANCH  19  20
ATOM     20  N   UNL     1      12.562  12.012   2.009  0.00  0.00    -0.302 NA
ATOM     21  C   UNL     1      11.492  11.626   0.984  0.00  0.00    +0.066 C 
ATOM     22  C   UNL     1      11.469  10.082   0.739  0.00  0.00    -0.064 C 
ATOM     23  N   UNL     1      11.233   9.361   2.067  0.00  0.00    +0.379 N 
ATOM     24  C   UNL     1      11.153   7.912   1.832  0.00  0.00    -0.096 C 
ATOM     25  H   UNL     1      10.245   9.695   2.461  0.00  0.00    -0.082 HD
ATOM     26  C   UNL     1      12.291   9.742   3.093  0.00  0.00    -0.064 C 
ATOM     27  C   UNL     1      12.325  11.281   3.307  0.00  0.00    +0.066 C 
ENDBRANCH  19  20
ENDBRANCH  18  19
ENDBRANCH  14  15
ENDBRANCH  12  13
TORSDOF 6
ENDMDL
