MODEL 1
REMARK VINA RESULT:     -10.2      0.000      0.000
REMARK  Name = C:\Users\Docking\Desktop\test protocol\1iep_ligandH.pdb
REMARK  8 active torsions:
REMARK  status: ('A' for Active; 'I' for Inactive)
REMARK    1  A    between atoms: _5  and  _11
REMARK    2  A    between atoms: _19  and  _21
REMARK    3  A    between atoms: _22  and  _66
REMARK    4  A    between atoms: _27  and  _30
REMARK    5  A    between atoms: _32  and  _33
REMARK    6  A    between atoms: _38  and  _43
REMARK    7  A    between atoms: _43  and  _46
REMARK    8  A    between atoms: _53  and  _55
REMARK                            x       y       z     vdW  Elec       q    Type
REMARK                         _______ _______ _______ _____ _____    ______ ____
ROOT
ATOM     10  C   UNL     1      10.762  25.149  11.888  0.00  0.00    +0.038 A 
ATOM     11  C   UNL     1      10.250  23.866  12.209  0.00  0.00    +0.047 A 
ATOM     12  C   UNL     1      10.691  23.156  13.400  0.00  0.00    +0.035 A 
ATOM     32  C   UNL     1      11.653  23.785  14.244  0.00  0.00    +0.024 A 
ATOM     33  C   UNL     1      12.184  25.089  13.932  0.00  0.00    +0.007 A 
ATOM     34  C   UNL     1      11.754  25.792  12.757  0.00  0.00    -0.029 A 
ATOM     35  C   UNL     1      12.362  27.185  12.470  0.00  0.00    +0.045 C 
ENDROOT
BRANCH  10   9
ATOM      4  C   UNL     1       7.296  27.201   9.277  0.00  0.00    +0.077 A 
ATOM      5  C   UNL     1       6.309  26.962  10.291  0.00  0.00    +0.048 A 
ATOM      6  C   UNL     1       6.733  26.301  11.466  0.00  0.00    +0.116 A 
ATOM      7  N   UNL     1       8.048  25.914  11.606  0.00  0.00    -0.223 NA
ATOM      8  C   UNL     1       8.974  26.159  10.609  0.00  0.00    +0.220 A 
ATOM      9  N   UNL     1      10.303  25.785  10.732  0.00  0.00    -0.283 N 
ATOM     36  H   UNL     1      10.954  25.977   9.971  0.00  0.00    +0.155 HD
ATOM     37  N   UNL     1       8.594  26.786   9.476  0.00  0.00    -0.214 NA
BRANCH   4   3
ATOM      1  C   UNL     1       7.006  28.008   5.461  0.00  0.00    +0.020 A 
ATOM      2  C   UNL     1       7.309  27.301   6.683  0.00  0.00    +0.013 A 
ATOM      3  C   UNL     1       7.003  27.890   7.981  0.00  0.00    +0.019 A 
ATOM     38  C   UNL     1       6.386  29.208   8.007  0.00  0.00    +0.120 A 
ATOM     39  N   UNL     1       6.106  29.866   6.813  0.00  0.00    -0.263 NA
ATOM     40  C   UNL     1       6.397  29.309   5.559  0.00  0.00    +0.111 A 
ENDBRANCH   4   3
ENDBRANCH  10   9
BRANCH  12  13
ATOM     13  N   UNL     1      10.214  21.848  13.772  0.00  0.00    -0.281 N 
ATOM     14  C   UNL     1      10.737  20.616  13.415  0.00  0.00    +0.248 C 
ATOM     30  O   UNL     1      11.575  20.449  12.540  0.00  0.00    -0.270 OA
ATOM     31  H   UNL     1       9.389  21.827  14.373  0.00  0.00    +0.155 HD
BRANCH  14  15
ATOM     15  C   UNL     1      10.250  19.392  14.120  0.00  0.00    +0.037 A 
ATOM     16  C   UNL     1       9.874  18.186  13.378  0.00  0.00    +0.013 A 
ATOM     17  C   UNL     1       9.391  17.025  14.082  0.00  0.00    +0.005 A 
ATOM     18  C   UNL     1       9.283  17.064  15.538  0.00  0.00    -0.033 A 
ATOM     28  C   UNL     1       9.668  18.271  16.250  0.00  0.00    +0.005 A 
ATOM     29  C   UNL     1      10.141  19.412  15.563  0.00  0.00    +0.013 A 
BRANCH  18  19
ATOM     19  C   UNL     1       8.758  15.878  16.370  0.00  0.00    +0.119 C 
BRANCH  19  20
ATOM     20  N   UNL     1       7.301  15.865  16.697  0.00  0.00    -0.302 NA
ATOM     21  C   UNL     1       6.432  16.108  15.460  0.00  0.00    +0.066 C 
ATOM     22  C   UNL     1       4.910  16.069  15.817  0.00  0.00    -0.064 C 
ATOM     23  N   UNL     1       4.616  17.110  16.899  0.00  0.00    +0.379 N 
ATOM     24  C   UNL     1       3.176  17.115  17.196  0.00  0.00    -0.096 C 
ATOM     25  H   UNL     1       4.880  18.111  16.486  0.00  0.00    -0.082 HD
ATOM     26  C   UNL     1       5.478  16.877  18.132  0.00  0.00    -0.064 C 
ATOM     27  C   UNL     1       6.987  16.889  17.761  0.00  0.00    +0.066 C 
ENDBRANCH  19  20
ENDBRANCH  18  19
ENDBRANCH  14  15
ENDBRANCH  12  13
TORSDOF 6
ENDMDL
MODEL 2
REMARK VINA RESULT:     -10.2      3.169      5.804
REMARK  Name = C:\Users\Docking\Desktop\test protocol\1iep_ligandH.pdb
REMARK  8 active torsions:
REMARK  status: ('A' for Active; 'I' for Inactive)
REMARK    1  A    between atoms: _5  and  _11
REMARK    2  A    between atoms: _19  and  _21
REMARK    3  A    between atoms: _22  and  _66
REMARK    4  A    between atoms: _27  and  _30
REMARK    5  A    between atoms: _32  and  _33
REMARK    6  A    between atoms: _38  and  _43
REMARK    7  A    between atoms: _43  and  _46
REMARK    8  A    between atoms: _53  and  _55
REMARK                            x       y       z     vdW  Elec       q    Type
REMARK                         _______ _______ _______ _____ _____    ______ ____
ROOT
ATOM     10  C   UNL     1       9.965  26.023  12.073  0.00  0.00    +0.038 A 
ATOM     11  C   UNL     1       9.969  24.704  12.595  0.00  0.00    +0.047 A 
ATOM     12  C   UNL     1       9.926  23.546  11.716  0.00  0.00    +0.035 A 
ATOM     32  C   UNL     1       9.882  23.768  10.308  0.00  0.00    +0.024 A 
ATOM     33  C   UNL     1       9.877  25.102   9.760  0.00  0.00    +0.007 A 
ATOM     34  C   UNL     1       9.916  26.247  10.623  0.00  0.00    -0.029 A 
ATOM     35  C   UNL     1       9.902  27.654   9.980  0.00  0.00    +0.045 C 
ENDROOT
BRANCH  10   9
ATOM      4  C   UNL     1      12.309  28.936  15.082  0.00  0.00    +0.077 A 
ATOM      5  C   UNL     1      13.548  28.240  14.885  0.00  0.00    +0.048 A 
ATOM      6  C   UNL     1      13.538  27.133  14.006  0.00  0.00    +0.116 A 
ATOM      7  N   UNL     1      12.370  26.760  13.377  0.00  0.00    -0.223 NA
ATOM      8  C   UNL     1      11.192  27.451  13.591  0.00  0.00    +0.220 A 
ATOM      9  N   UNL     1      10.008  27.098  12.963  0.00  0.00    -0.283 N 
ATOM     36  H   UNL     1       9.158  27.629  13.153  0.00  0.00    +0.155 HD
ATOM     37  N   UNL     1      11.175  28.511  14.427  0.00  0.00    -0.214 NA
BRANCH   4   3
ATOM      1  C   UNL     1      10.779  31.752  17.324  0.00  0.00    +0.020 A 
ATOM      2  C   UNL     1      10.868  30.597  16.460  0.00  0.00    +0.013 A 
ATOM      3  C   UNL     1      12.160  30.126  15.978  0.00  0.00    +0.019 A 
ATOM     38  C   UNL     1      13.352  30.851  16.391  0.00  0.00    +0.120 A 
ATOM     39  N   UNL     1      13.235  31.961  17.222  0.00  0.00    -0.263 NA
ATOM     40  C   UNL     1      11.997  32.425  17.691  0.00  0.00    +0.111 A 
ENDBRANCH   4   3
ENDBRANCH  10   9
BRANCH  12  13
ATOM     13  N   UNL     1       9.919  22.184  12.189  0.00  0.00    -0.281 N 
ATOM     14  C   UNL     1      10.942  21.497  12.821  0.00  0.00    +0.248 C 
ATOM     30  O   UNL     1      12.099  21.886  12.886  0.00  0.00    -0.270 OA
ATOM     31  H   UNL     1       9.055  21.663  12.039  0.00  0.00    +0.155 HD
BRANCH  14  15
ATOM     15  C   UNL     1      10.640  20.181  13.463  0.00  0.00    +0.037 A 
ATOM     16  C   UNL     1      11.120  19.865  14.810  0.00  0.00    +0.013 A 
ATOM     17  C   UNL     1      10.829  18.582  15.399  0.00  0.00    +0.005 A 
ATOM     18  C   UNL     1      10.051  17.605  14.640  0.00  0.00    -0.033 A 
ATOM     28  C   UNL     1       9.583  17.948  13.307  0.00  0.00    +0.005 A 
ATOM     29  C   UNL     1       9.867  19.204  12.726  0.00  0.00    +0.013 A 
BRANCH  18  19
ATOM     19  C   UNL     1       9.711  16.204  15.181  0.00  0.00    +0.119 C 
BRANCH  19  20
ATOM     20  N   UNL     1       8.387  16.032  15.849  0.00  0.00    -0.302 NA
ATOM     21  C   UNL     1       7.232  16.028  14.844  0.00  0.00    +0.066 C 
ATOM     22  C   UNL     1       5.856  15.824  15.559  0.00  0.00    -0.064 C 
ATOM     23  N   UNL     1       5.660  16.923  16.605  0.00  0.00    +0.379 N 
ATOM     24  C   UNL     1       4.343  16.768  17.238  0.00  0.00    -0.096 C 
ATOM     25  H   UNL     1       5.667  17.902  16.071  0.00  0.00    -0.082 HD
ATOM     26  C   UNL     1       6.806  16.936  17.607  0.00  0.00    -0.064 C 
ATOM     27  C   UNL     1       8.171  17.109  16.884  0.00  0.00    +0.066 C 
ENDBRANCH  19  20
ENDBRANCH  18  19
ENDBRANCH  14  15
ENDBRANCH  12  13
TORSDOF 6
ENDMDL
MODEL 3
REMARK VINA RESULT:     -10.1      3.031      5.419
REMARK  Name = C:\Users\Docking\Desktop\test protocol\1iep_ligandH.pdb
REMARK  8 active torsions:
REMARK  status: ('A' for Active; 'I' for Inactive)
REMARK    1  A    between atoms: _5  and  _11
REMARK    2  A    between atoms: _19  and  _21
REMARK    3  A    between atoms: _22  and  _66
REMARK    4  A    between atoms: _27  and  _30
REMARK    5  A    between atoms: _32  and  _33
REMARK    6  A    between atoms: _38  and  _43
REMARK    7  A    between atoms: _43  and  _46
REMARK    8  A    between atoms: _53  and  _55
REMARK                            x       y       z     vdW  Elec       q    Type
REMARK                         _______ _______ _______ _____ _____    ______ ____
ROOT
ATOM     10  C   UNL     1      11.454  20.928  15.135  0.00  0.00    +0.038 A 
ATOM     11  C   UNL     1      10.338  20.074  15.324  0.00  0.00    +0.047 A 
ATOM     12  C   UNL     1      10.507  18.711  15.805  0.00  0.00    +0.035 A 
ATOM     32  C   UNL     1      11.827  18.253  16.086  0.00  0.00    +0.024 A 
ATOM     33  C   UNL     1      12.972  19.107  15.898  0.00  0.00    +0.007 A 
ATOM     34  C   UNL     1      12.813  20.451  15.421  0.00  0.00    -0.029 A 
ATOM     35  C   UNL     1      14.077  21.321  15.232  0.00  0.00    +0.045 C 
ENDROOT
BRANCH  10   9
ATOM      4  C   UNL     1      10.079  24.037  11.746  0.00  0.00    +0.077 A 
ATOM      5  C   UNL     1       9.799  22.986  10.812  0.00  0.00    +0.048 A 
ATOM      6  C   UNL     1      10.030  21.659  11.239  0.00  0.00    +0.116 A 
ATOM      7  N   UNL     1      10.504  21.414  12.510  0.00  0.00    -0.223 NA
ATOM      8  C   UNL     1      10.765  22.451  13.386  0.00  0.00    +0.220 A 
ATOM      9  N   UNL     1      11.235  22.227  14.671  0.00  0.00    -0.283 N 
ATOM     36  H   UNL     1      11.422  23.020  15.285  0.00  0.00    +0.155 HD
ATOM     37  N   UNL     1      10.554  23.727  13.001  0.00  0.00    -0.214 NA
BRANCH   4   3
ATOM      1  C   UNL     1      10.270  27.555  10.047  0.00  0.00    +0.020 A 
ATOM      2  C   UNL     1      10.492  26.149  10.295  0.00  0.00    +0.013 A 
ATOM      3  C   UNL     1       9.883  25.490  11.444  0.00  0.00    +0.019 A 
ATOM     38  C   UNL     1       9.048  26.289  12.329  0.00  0.00    +0.120 A 
ATOM     39  N   UNL     1       8.854  27.641  12.066  0.00  0.00    -0.263 NA
ATOM     40  C   UNL     1       9.436  28.286  10.964  0.00  0.00    +0.111 A 
ENDBRANCH   4   3
ENDBRANCH  10   9
BRANCH  12  13
ATOM     13  N   UNL     1       9.412  17.796  16.009  0.00  0.00    -0.281 N 
ATOM     14  C   UNL     1       8.585  17.690  17.115  0.00  0.00    +0.248 C 
ATOM     30  O   UNL     1       8.798  18.227  18.191  0.00  0.00    -0.270 OA
ATOM     31  H   UNL     1       9.224  17.146  15.245  0.00  0.00    +0.155 HD
BRANCH  14  15
ATOM     15  C   UNL     1       7.350  16.854  17.016  0.00  0.00    +0.037 A 
ATOM     16  C   UNL     1       6.392  16.779  18.122  0.00  0.00    +0.013 A 
ATOM     17  C   UNL     1       5.217  15.951  18.006  0.00  0.00    +0.005 A 
ATOM     18  C   UNL     1       4.993  15.193  16.778  0.00  0.00    -0.033 A 
ATOM     28  C   UNL     1       5.957  15.290  15.694  0.00  0.00    +0.005 A 
ATOM     29  C   UNL     1       7.110  16.099  15.804  0.00  0.00    +0.013 A 
BRANCH  18  19
ATOM     19  C   UNL     1       3.778  14.269  16.576  0.00  0.00    +0.119 C 
BRANCH  19  20
ATOM     20  N   UNL     1       2.440  14.918  16.442  0.00  0.00    -0.302 NA
ATOM     21  C   UNL     1       1.393  13.963  15.860  0.00  0.00    +0.066 C 
ATOM     22  C   UNL     1      -0.006  14.651  15.749  0.00  0.00    -0.064 C 
ATOM     23  N   UNL     1       0.115  15.910  14.889  0.00  0.00    +0.379 N 
ATOM     24  C   UNL     1      -1.210  16.528  14.734  0.00  0.00    -0.096 C 
ATOM     25  H   UNL     1       0.463  15.597  13.877  0.00  0.00    -0.082 HD
ATOM     26  C   UNL     1       1.156  16.864  15.459  0.00  0.00    -0.064 C 
ATOM     27  C   UNL     1       2.535  16.161  15.593  0.00  0.00    +0.066 C 
ENDBRANCH  19  20
ENDBRANCH  18  19
ENDBRANCH  14  15
ENDBRANCH  12  13
TORSDOF 6
ENDMDL
MODEL 4
REMARK VINA RESULT:     -10.1      2.513     10.829
REMARK  Name = C:\Users\Docking\Desktop\test protocol\1iep_ligandH.pdb
REMARK  8 active torsions:
REMARK  status: ('A' for Active; 'I' for Inactive)
REMARK    1  A    between atoms: _5  and  _11
REMARK    2  A    between atoms: _19  and  _21
REMARK    3  A    between atoms: _22  and  _66
REMARK    4  A    between atoms: _27  and  _30
REMARK    5  A    between atoms: _32  and  _33
REMARK    6  A    between atoms: _38  and  _43
REMARK    7  A    between atoms: _43  and  _46
REMARK    8  A    between atoms: _53  and  _55
REMARK                            x       y       z     vdW  Elec       q    Type
REMARK                         _______ _______ _______ _____ _____    ______ ____
ROOT
ATOM     10  C   UNL     1      11.094  23.583  13.967  0.00  0.00    +0.038 A 
ATOM     11  C   UNL     1      10.243  24.177  13.000  0.00  0.00    +0.047 A 
ATOM     12  C   UNL     1      10.612  25.416  12.332  0.00  0.00    +0.035 A 
ATOM     32  C   UNL     1      11.857  26.021  12.671  0.00  0.00    +0.024 A 
ATOM     33  C   UNL     1      12.734  25.432  13.652  0.00  0.00    +0.007 A 
ATOM     34  C   UNL     1      12.374  24.211  14.316  0.00  0.00    -0.029 A 
ATOM     35  C   UNL     1      13.350  23.628  15.364  0.00  0.00    +0.045 C 
ENDROOT
BRANCH  10   9
ATOM      4  C   UNL     1       9.962  18.921  13.816  0.00  0.00    +0.077 A 
ATOM      5  C   UNL     1      10.167  18.857  12.398  0.00  0.00    +0.048 A 
ATOM      6  C   UNL     1      10.556  20.047  11.744  0.00  0.00    +0.116 A 
ATOM      7  N   UNL     1      10.726  21.209  12.464  0.00  0.00    -0.223 NA
ATOM      8  C   UNL     1      10.518  21.238  13.831  0.00  0.00    +0.220 A 
ATOM      9  N   UNL     1      10.690  22.394  14.577  0.00  0.00    -0.283 N 
ATOM     36  H   UNL     1      10.520  22.375  15.582  0.00  0.00    +0.155 HD
ATOM     37  N   UNL     1      10.145  20.115  14.479  0.00  0.00    -0.214 NA
BRANCH   4   3
ATOM      1  C   UNL     1       8.784  15.360  14.926  0.00  0.00    +0.020 A 
ATOM      2  C   UNL     1       9.171  16.463  14.076  0.00  0.00    +0.013 A 
ATOM      3  C   UNL     1       9.552  17.747  14.650  0.00  0.00    +0.019 A 
ATOM     38  C   UNL     1       9.532  17.884  16.099  0.00  0.00    +0.120 A 
ATOM     39  N   UNL     1       9.153  16.805  16.892  0.00  0.00    -0.263 NA
ATOM     40  C   UNL     1       8.783  15.565  16.350  0.00  0.00    +0.111 A 
ENDBRANCH   4   3
ENDBRANCH  10   9
BRANCH  12  13
ATOM     13  N   UNL     1       9.785  26.069  11.348  0.00  0.00    -0.281 N 
ATOM     14  C   UNL     1       9.964  26.108   9.975  0.00  0.00    +0.248 C 
ATOM     30  O   UNL     1      10.987  25.763   9.402  0.00  0.00    -0.270 OA
ATOM     31  H   UNL     1       8.968  26.564  11.708  0.00  0.00    +0.155 HD
BRANCH  14  15
ATOM     15  C   UNL     1       8.852  26.617   9.116  0.00  0.00    +0.037 A 
ATOM     16  C   UNL     1       7.727  27.359   9.690  0.00  0.00    +0.013 A 
ATOM     17  C   UNL     1       6.658  27.824   8.841  0.00  0.00    +0.005 A 
ATOM     18  C   UNL     1       6.711  27.548   7.408  0.00  0.00    -0.033 A 
ATOM     28  C   UNL     1       7.842  26.814   6.864  0.00  0.00    +0.005 A 
ATOM     29  C   UNL     1       8.890  26.356   7.693  0.00  0.00    +0.013 A 
BRANCH  18  19
ATOM     19  C   UNL     1       5.605  27.987   6.430  0.00  0.00    +0.119 C 
BRANCH  19  20
ATOM     20  N   UNL     1       4.339  27.195   6.429  0.00  0.00    -0.302 NA
ATOM     21  C   UNL     1       3.425  27.572   7.598  0.00  0.00    +0.066 C 
ATOM     22  C   UNL     1       2.095  26.750   7.569  0.00  0.00    -0.064 C 
ATOM     23  N   UNL     1       2.422  25.256   7.597  0.00  0.00    +0.379 N 
ATOM     24  C   UNL     1       1.173  24.481   7.628  0.00  0.00    -0.096 C 
ATOM     25  H   UNL     1       2.973  25.048   8.544  0.00  0.00    -0.082 HD
ATOM     26  C   UNL     1       3.333  24.873   6.439  0.00  0.00    -0.064 C 
ATOM     27  C   UNL     1       4.639  25.717   6.461  0.00  0.00    +0.066 C 
ENDBRANCH  19  20
ENDBRANCH  18  19
ENDBRANCH  14  15
ENDBRANCH  12  13
TORSDOF 6
ENDMDL
MODEL 5
REMARK VINA RESULT:     -10.1      9.958     15.977
REMARK  Name = C:\Users\Docking\Desktop\test protocol\1iep_ligandH.pdb
REMARK  8 active torsions:
REMARK  status: ('A' for Active; 'I' for Inactive)
REMARK    1  A    between atoms: _5  and  _11
REMARK    2  A    between atoms: _19  and  _21
REMARK    3  A    between atoms: _22  and  _66
REMARK    4  A    between atoms: _27  and  _30
REMARK    5  A    between atoms: _32  and  _33
REMARK    6  A    between atoms: _38  and  _43
REMARK    7  A    between atoms: _43  and  _46
REMARK    8  A    between atoms: _53  and  _55
REMARK                            x       y       z     vdW  Elec       q    Type
REMARK                         _______ _______ _______ _____ _____    ______ ____
ROOT
ATOM     10  C   UNL     1      20.057  17.668  19.237  0.00  0.00    +0.038 A 
ATOM     11  C   UNL     1      18.813  17.939  18.612  0.00  0.00    +0.047 A 
ATOM     12  C   UNL     1      18.234  19.273  18.635  0.00  0.00    +0.035 A 
ATOM     32  C   UNL     1      18.950  20.309  19.302  0.00  0.00    +0.024 A 
ATOM     33  C   UNL     1      20.216  20.051  19.943  0.00  0.00    +0.007 A 
ATOM     34  C   UNL     1      20.791  18.737  19.926  0.00  0.00    -0.029 A 
ATOM     35  C   UNL     1      22.147  18.517  20.635  0.00  0.00    +0.045 C 
ENDROOT
BRANCH  10   9
ATOM      4  C   UNL     1      21.029  13.417  21.243  0.00  0.00    +0.077 A 
ATOM      5  C   UNL     1      20.500  13.828  22.511  0.00  0.00    +0.048 A 
ATOM      6  C   UNL     1      19.994  15.144  22.608  0.00  0.00    +0.116 A 
ATOM      7  N   UNL     1      20.020  15.978  21.511  0.00  0.00    -0.223 NA
ATOM      8  C   UNL     1      20.538  15.550  20.302  0.00  0.00    +0.220 A 
ATOM      9  N   UNL     1      20.567  16.369  19.184  0.00  0.00    -0.283 N 
ATOM     36  H   UNL     1      20.965  16.018  18.313  0.00  0.00    +0.155 HD
ATOM     37  N   UNL     1      21.029  14.299  20.185  0.00  0.00    -0.214 NA
BRANCH   4   3
ATOM      1  C   UNL     1      23.121  10.126  21.539  0.00  0.00    +0.020 A 
ATOM      2  C   UNL     1      22.607  11.443  21.834  0.00  0.00    +0.013 A 
ATOM      3  C   UNL     1      21.596  12.056  20.982  0.00  0.00    +0.019 A 
ATOM     38  C   UNL     1      21.123  11.304  19.830  0.00  0.00    +0.120 A 
ATOM     39  N   UNL     1      21.638  10.038  19.569  0.00  0.00    -0.263 NA
ATOM     40  C   UNL     1      22.612   9.438  20.381  0.00  0.00    +0.111 A 
ENDBRANCH   4   3
ENDBRANCH  10   9
BRANCH  12  13
ATOM     13  N   UNL     1      16.970  19.605  18.026  0.00  0.00    -0.281 N 
ATOM     14  C   UNL     1      16.743  20.414  16.924  0.00  0.00    +0.248 C 
ATOM     30  O   UNL     1      17.580  21.149  16.422  0.00  0.00    -0.270 OA
ATOM     31  H   UNL     1      16.143  19.195  18.459  0.00  0.00    +0.155 HD
BRANCH  14  15
ATOM     15  C   UNL     1      15.386  20.416  16.298  0.00  0.00    +0.037 A 
ATOM     16  C   UNL     1      14.200  20.004  17.053  0.00  0.00    +0.013 A 
ATOM     17  C   UNL     1      12.905  20.000  16.420  0.00  0.00    +0.005 A 
ATOM     18  C   UNL     1      12.789  20.410  15.023  0.00  0.00    -0.033 A 
ATOM     28  C   UNL     1      13.981  20.819  14.299  0.00  0.00    +0.005 A 
ATOM     29  C   UNL     1      15.252  20.824  14.915  0.00  0.00    +0.013 A 
BRANCH  18  19
ATOM     19  C   UNL     1      11.451  20.416  14.261  0.00  0.00    +0.119 C 
BRANCH  19  20
ATOM     20  N   UNL     1      11.215  21.536  13.301  0.00  0.00    -0.302 NA
ATOM     21  C   UNL     1      10.907  22.853  14.020  0.00  0.00    +0.066 C 
ATOM     22  C   UNL     1      10.686  24.019  13.002  0.00  0.00    -0.064 C 
ATOM     23  N   UNL     1       9.553  23.647  12.044  0.00  0.00    +0.379 N 
ATOM     24  C   UNL     1       9.303  24.765  11.122  0.00  0.00    -0.096 C 
ATOM     25  H   UNL     1       8.631  23.498  12.653  0.00  0.00    -0.082 HD
ATOM     26  C   UNL     1       9.849  22.337  11.327  0.00  0.00    -0.064 C 
ATOM     27  C   UNL     1      10.097  21.192  12.348  0.00  0.00    +0.066 C 
ENDBRANCH  19  20
ENDBRANCH  18  19
ENDBRANCH  14  15
ENDBRANCH  12  13
TORSDOF 6
ENDMDL
