MODEL 1
REMARK VINA RESULT:      -8.9      0.000      0.000
REMARK  Name = C:\Users\Docking\Desktop\test protocol\1iep_ligandH.pdb
REMARK  8 active torsions:
REMARK  status: ('A' for Active; 'I' for Inactive)
REMARK    1  A    between atoms: _5  and  _11
REMARK    2  A    between atoms: _19  and  _21
REMARK    3  A    between atoms: _22  and  _66
REMARK    4  A    between atoms: _27  and  _30
REMARK    5  A    between atoms: _32  and  _33
REMARK    6  A    between atoms: _38  and  _43
REMARK    7  A    between atoms: _43  and  _46
REMARK    8  A    between atoms: _53  and  _55
REMARK                            x       y       z     vdW  Elec       q    Type
REMARK                         _______ _______ _______ _____ _____    ______ ____
ROOT
ATOM     10  C   UNL     1     148.479 123.335 118.647  0.00  0.00    +0.038 A 
ATOM     11  C   UNL     1     149.547 122.714 117.952  0.00  0.00    +0.047 A 
ATOM     12  C   UNL     1     150.269 123.414 116.901  0.00  0.00    +0.035 A 
ATOM     32  C   UNL     1     149.878 124.748 116.586  0.00  0.00    +0.024 A 
ATOM     33  C   UNL     1     148.794 125.395 117.282  0.00  0.00    +0.007 A 
ATOM     34  C   UNL     1     148.076 124.708 118.318  0.00  0.00    -0.029 A 
ATOM     35  C   UNL     1     146.918 125.449 119.027  0.00  0.00    +0.045 C 
ENDROOT
BRANCH  10   9
ATOM      4  C   UNL     1     148.466 120.742 122.686  0.00  0.00    +0.077 A 
ATOM      5  C   UNL     1     149.895 120.801 122.799  0.00  0.00    +0.048 A 
ATOM      6  C   UNL     1     150.597 121.503 121.792  0.00  0.00    +0.116 A 
ATOM      7  N   UNL     1     149.910 122.097 120.756  0.00  0.00    -0.223 NA
ATOM      8  C   UNL     1     148.532 122.020 120.677  0.00  0.00    +0.220 A 
ATOM      9  N   UNL     1     147.820 122.617 119.648  0.00  0.00    -0.283 N 
ATOM     36  H   UNL     1     146.804 122.531 119.621  0.00  0.00    +0.155 HD
ATOM     37  N   UNL     1     147.839 121.355 121.624  0.00  0.00    -0.214 NA
BRANCH   4   3
ATOM      1  C   UNL     1     145.350 119.602 124.757  0.00  0.00    +0.020 A 
ATOM      2  C   UNL     1     146.157 120.308 123.788  0.00  0.00    +0.013 A 
ATOM      3  C   UNL     1     147.585 120.041 123.673  0.00  0.00    +0.019 A 
ATOM     38  C   UNL     1     148.171 119.047 124.559  0.00  0.00    +0.120 A 
ATOM     39  N   UNL     1     147.369 118.384 125.483  0.00  0.00    -0.263 NA
ATOM     40  C   UNL     1     145.994 118.633 125.605  0.00  0.00    +0.111 A 
ENDBRANCH   4   3
ENDBRANCH  10   9
BRANCH  12  13
ATOM     13  N   UNL     1     151.356 122.831 116.154  0.00  0.00    -0.281 N 
ATOM     14  C   UNL     1     151.940 123.304 114.991  0.00  0.00    +0.248 C 
ATOM     30  O   UNL     1     151.472 124.192 114.294  0.00  0.00    -0.270 OA
ATOM     31  H   UNL     1     151.742 121.964 116.530  0.00  0.00    +0.155 HD
BRANCH  14  15
ATOM     15  C   UNL     1     153.222 122.692 114.526  0.00  0.00    +0.037 A 
ATOM     16  C   UNL     1     154.215 123.476 113.786  0.00  0.00    +0.013 A 
ATOM     17  C   UNL     1     155.435 122.857 113.335  0.00  0.00    +0.005 A 
ATOM     18  C   UNL     1     155.671 121.444 113.623  0.00  0.00    -0.033 A 
ATOM     28  C   UNL     1     154.672 120.691 114.363  0.00  0.00    +0.005 A 
ATOM     29  C   UNL     1     153.474 121.294 114.807  0.00  0.00    +0.013 A 
BRANCH  18  19
ATOM     19  C   UNL     1     156.936 120.696 113.162  0.00  0.00    +0.119 C 
BRANCH  19  20
ATOM     20  N   UNL     1     158.024 120.508 114.167  0.00  0.00    -0.302 NA
ATOM     21  C   UNL     1     159.356 121.091 113.687  0.00  0.00    +0.066 C 
ATOM     22  C   UNL     1     160.478 120.905 114.761  0.00  0.00    -0.064 C 
ATOM     23  N   UNL     1     160.625 119.418 115.089  0.00  0.00    +0.379 N 
ATOM     24  C   UNL     1     161.718 119.235 116.055  0.00  0.00    -0.096 C 
ATOM     25  H   UNL     1     160.911 118.891 114.149  0.00  0.00    -0.082 HD
ATOM     26  C   UNL     1     159.304 118.830 115.564  0.00  0.00    -0.064 C 
ATOM     27  C   UNL     1     158.189 119.046 114.503  0.00  0.00    +0.066 C 
ENDBRANCH  19  20
ENDBRANCH  18  19
ENDBRANCH  14  15
ENDBRANCH  12  13
TORSDOF 6
ENDMDL
MODEL 2
REMARK VINA RESULT:      -8.9      5.953     13.474
REMARK  Name = C:\Users\Docking\Desktop\test protocol\1iep_ligandH.pdb
REMARK  8 active torsions:
REMARK  status: ('A' for Active; 'I' for Inactive)
REMARK    1  A    between atoms: _5  and  _11
REMARK    2  A    between atoms: _19  and  _21
REMARK    3  A    between atoms: _22  and  _66
REMARK    4  A    between atoms: _27  and  _30
REMARK    5  A    between atoms: _32  and  _33
REMARK    6  A    between atoms: _38  and  _43
REMARK    7  A    between atoms: _43  and  _46
REMARK    8  A    between atoms: _53  and  _55
REMARK                            x       y       z     vdW  Elec       q    Type
REMARK                         _______ _______ _______ _____ _____    ______ ____
ROOT
ATOM     10  C   UNL     1     151.066 118.018 120.507  0.00  0.00    +0.038 A 
ATOM     11  C   UNL     1     150.803 117.602 121.837  0.00  0.00    +0.047 A 
ATOM     12  C   UNL     1     150.923 116.205 122.226  0.00  0.00    +0.035 A 
ATOM     32  C   UNL     1     151.317 115.259 121.235  0.00  0.00    +0.024 A 
ATOM     33  C   UNL     1     151.588 115.665 119.879  0.00  0.00    +0.007 A 
ATOM     34  C   UNL     1     151.468 117.041 119.488  0.00  0.00    -0.029 A 
ATOM     35  C   UNL     1     151.764 117.418 118.018  0.00  0.00    +0.045 C 
ENDROOT
BRANCH  10   9
ATOM      4  C   UNL     1     148.435 121.846 119.298  0.00  0.00    +0.077 A 
ATOM      5  C   UNL     1     147.223 121.079 119.272  0.00  0.00    +0.048 A 
ATOM      6  C   UNL     1     147.321 119.701 119.569  0.00  0.00    +0.116 A 
ATOM      7  N   UNL     1     148.545 119.143 119.868  0.00  0.00    -0.223 NA
ATOM      8  C   UNL     1     149.695 119.911 119.883  0.00  0.00    +0.220 A 
ATOM      9  N   UNL     1     150.935 119.372 120.189  0.00  0.00    -0.283 N 
ATOM     36  H   UNL     1     151.761 119.970 120.181  0.00  0.00    +0.155 HD
ATOM     37  N   UNL     1     149.628 121.228 119.601  0.00  0.00    -0.214 NA
BRANCH   4   3
ATOM      1  C   UNL     1     149.689 125.392 118.223  0.00  0.00    +0.020 A 
ATOM      2  C   UNL     1     149.685 123.971 118.485  0.00  0.00    +0.013 A 
ATOM      3  C   UNL     1     148.494 123.314 119.009  0.00  0.00    +0.019 A 
ATOM     38  C   UNL     1     147.315 124.129 119.260  0.00  0.00    +0.120 A 
ATOM     39  N   UNL     1     147.349 125.496 119.000  0.00  0.00    -0.263 NA
ATOM     40  C   UNL     1     148.490 126.139 118.496  0.00  0.00    +0.111 A 
ENDBRANCH   4   3
ENDBRANCH  10   9
BRANCH  12  13
ATOM     13  N   UNL     1     150.661 115.722 123.559  0.00  0.00    -0.281 N 
ATOM     14  C   UNL     1     151.331 116.044 124.729  0.00  0.00    +0.248 C 
ATOM     30  O   UNL     1     152.399 116.637 124.773  0.00  0.00    -0.270 OA
ATOM     31  H   UNL     1     149.888 115.063 123.652  0.00  0.00    +0.155 HD
BRANCH  14  15
ATOM     15  C   UNL     1     150.734 115.637 126.038  0.00  0.00    +0.037 A 
ATOM     16  C   UNL     1     151.521 114.913 127.039  0.00  0.00    +0.013 A 
ATOM     17  C   UNL     1     150.917 114.517 128.286  0.00  0.00    +0.005 A 
ATOM     18  C   UNL     1     149.516 114.847 128.539  0.00  0.00    -0.033 A 
ATOM     28  C   UNL     1     148.760 115.571 127.531  0.00  0.00    +0.005 A 
ATOM     29  C   UNL     1     149.349 115.960 126.307  0.00  0.00    +0.013 A 
BRANCH  18  19
ATOM     19  C   UNL     1     148.784 114.446 129.833  0.00  0.00    +0.119 C 
BRANCH  19  20
ATOM     20  N   UNL     1     148.117 113.109 129.856  0.00  0.00    -0.302 NA
ATOM     21  C   UNL     1     146.608 113.224 130.088  0.00  0.00    +0.066 C 
ATOM     22  C   UNL     1     145.923 111.818 130.085  0.00  0.00    -0.064 C 
ATOM     23  N   UNL     1     146.570 110.937 131.155  0.00  0.00    +0.379 N 
ATOM     24  C   UNL     1     145.890 109.634 131.195  0.00  0.00    -0.096 C 
ATOM     25  H   UNL     1     146.412 111.432 132.142  0.00  0.00    -0.082 HD
ATOM     26  C   UNL     1     148.072 110.820 130.934  0.00  0.00    -0.064 C 
ATOM     27  C   UNL     1     148.738 112.224 130.908  0.00  0.00    +0.066 C 
ENDBRANCH  19  20
ENDBRANCH  18  19
ENDBRANCH  14  15
ENDBRANCH  12  13
TORSDOF 6
ENDMDL
MODEL 3
REMARK VINA RESULT:      -8.6      6.169     13.170
REMARK  Name = C:\Users\Docking\Desktop\test protocol\1iep_ligandH.pdb
REMARK  8 active torsions:
REMARK  status: ('A' for Active; 'I' for Inactive)
REMARK    1  A    between atoms: _5  and  _11
REMARK    2  A    between atoms: _19  and  _21
REMARK    3  A    between atoms: _22  and  _66
REMARK    4  A    between atoms: _27  and  _30
REMARK    5  A    between atoms: _32  and  _33
REMARK    6  A    between atoms: _38  and  _43
REMARK    7  A    between atoms: _43  and  _46
REMARK    8  A    between atoms: _53  and  _55
REMARK                            x       y       z     vdW  Elec       q    Type
REMARK                         _______ _______ _______ _____ _____    ______ ____
ROOT
ATOM     10  C   UNL     1     149.877 117.484 120.764  0.00  0.00    +0.038 A 
ATOM     11  C   UNL     1     150.049 117.140 122.129  0.00  0.00    +0.047 A 
ATOM     12  C   UNL     1     150.752 115.927 122.516  0.00  0.00    +0.035 A 
ATOM     32  C   UNL     1     151.268 115.087 121.486  0.00  0.00    +0.024 A 
ATOM     33  C   UNL     1     151.101 115.421 120.094  0.00  0.00    +0.007 A 
ATOM     34  C   UNL     1     150.406 116.616 119.706  0.00  0.00    -0.029 A 
ATOM     35  C   UNL     1     150.251 116.920 118.198  0.00  0.00    +0.045 C 
ENDROOT
BRANCH  10   9
ATOM      4  C   UNL     1     149.776 122.163 119.697  0.00  0.00    +0.077 A 
ATOM      5  C   UNL     1     151.202 122.278 119.802  0.00  0.00    +0.048 A 
ATOM      6  C   UNL     1     151.924 121.111 120.140  0.00  0.00    +0.116 A 
ATOM      7  N   UNL     1     151.259 119.923 120.354  0.00  0.00    -0.223 NA
ATOM      8  C   UNL     1     149.883 119.847 120.246  0.00  0.00    +0.220 A 
ATOM      9  N   UNL     1     149.194 118.661 120.449  0.00  0.00    -0.283 N 
ATOM     36  H   UNL     1     148.178 118.648 120.367  0.00  0.00    +0.155 HD
ATOM     37  N   UNL     1     149.170 120.948 119.926  0.00  0.00    -0.214 NA
BRANCH   4   3
ATOM      1  C   UNL     1     148.429 125.567 118.319  0.00  0.00    +0.020 A 
ATOM      2  C   UNL     1     149.340 124.491 118.636  0.00  0.00    +0.013 A 
ATOM      3  C   UNL     1     148.876 123.306 119.345  0.00  0.00    +0.019 A 
ATOM     38  C   UNL     1     147.472 123.239 119.721  0.00  0.00    +0.120 A 
ATOM     39  N   UNL     1     146.618 124.291 119.405  0.00  0.00    -0.263 NA
ATOM     40  C   UNL     1     147.054 125.437 118.724  0.00  0.00    +0.111 A 
ENDBRANCH   4   3
ENDBRANCH  10   9
BRANCH  12  13
ATOM     13  N   UNL     1     150.951 115.522 123.886  0.00  0.00    -0.281 N 
ATOM     14  C   UNL     1     151.511 116.256 124.918  0.00  0.00    +0.248 C 
ATOM     30  O   UNL     1     152.125 117.302 124.768  0.00  0.00    -0.270 OA
ATOM     31  H   UNL     1     150.641 114.580 124.123  0.00  0.00    +0.155 HD
BRANCH  14  15
ATOM     15  C   UNL     1     151.384 115.748 126.318  0.00  0.00    +0.037 A 
ATOM     16  C   UNL     1     150.579 116.458 127.314  0.00  0.00    +0.013 A 
ATOM     17  C   UNL     1     150.487 115.955 128.662  0.00  0.00    +0.005 A 
ATOM     18  C   UNL     1     151.202 114.733 129.020  0.00  0.00    -0.033 A 
ATOM     28  C   UNL     1     151.990 114.045 128.011  0.00  0.00    +0.005 A 
ATOM     29  C   UNL     1     152.083 114.536 126.689  0.00  0.00    +0.013 A 
BRANCH  18  19
ATOM     19  C   UNL     1     151.178 114.135 130.440  0.00  0.00    +0.119 C 
BRANCH  19  20
ATOM     20  N   UNL     1     149.965 113.359 130.834  0.00  0.00    -0.302 NA
ATOM     21  C   UNL     1     150.312 112.167 131.730  0.00  0.00    +0.066 C 
ATOM     22  C   UNL     1     149.028 111.380 132.152  0.00  0.00    -0.064 C 
ATOM     23  N   UNL     1     148.282 110.917 130.899  0.00  0.00    +0.379 N 
ATOM     24  C   UNL     1     147.106 110.127 131.292  0.00  0.00    -0.096 C 
ATOM     25  H   UNL     1     148.965 110.246 130.328  0.00  0.00    -0.082 HD
ATOM     26  C   UNL     1     147.936 112.097 130.002  0.00  0.00    -0.064 C 
ATOM     27  C   UNL     1     149.215 112.889 129.612  0.00  0.00    +0.066 C 
ENDBRANCH  19  20
ENDBRANCH  18  19
ENDBRANCH  14  15
ENDBRANCH  12  13
TORSDOF 6
ENDMDL
MODEL 4
REMARK VINA RESULT:      -8.5     46.409     49.055
REMARK  Name = C:\Users\Docking\Desktop\test protocol\1iep_ligandH.pdb
REMARK  8 active torsions:
REMARK  status: ('A' for Active; 'I' for Inactive)
REMARK    1  A    between atoms: _5  and  _11
REMARK    2  A    between atoms: _19  and  _21
REMARK    3  A    between atoms: _22  and  _66
REMARK    4  A    between atoms: _27  and  _30
REMARK    5  A    between atoms: _32  and  _33
REMARK    6  A    between atoms: _38  and  _43
REMARK    7  A    between atoms: _43  and  _46
REMARK    8  A    between atoms: _53  and  _55
REMARK                            x       y       z     vdW  Elec       q    Type
REMARK                         _______ _______ _______ _____ _____    ______ ____
ROOT
ATOM     10  C   UNL     1     134.683 106.123 159.635  0.00  0.00    +0.038 A 
ATOM     11  C   UNL     1     134.133 107.427 159.715  0.00  0.00    +0.047 A 
ATOM     12  C   UNL     1     133.357 107.985 158.619  0.00  0.00    +0.035 A 
ATOM     32  C   UNL     1     133.158 107.185 157.456  0.00  0.00    +0.024 A 
ATOM     33  C   UNL     1     133.712 105.858 157.357  0.00  0.00    +0.007 A 
ATOM     34  C   UNL     1     134.480 105.303 158.434  0.00  0.00    -0.029 A 
ATOM     35  C   UNL     1     135.055 103.877 158.271  0.00  0.00    +0.045 C 
ENDROOT
BRANCH  10   9
ATOM      4  C   UNL     1     138.767 105.679 162.117  0.00  0.00    +0.077 A 
ATOM      5  C   UNL     1     139.501 106.459 161.162  0.00  0.00    +0.048 A 
ATOM      6  C   UNL     1     138.793 106.949 160.043  0.00  0.00    +0.116 A 
ATOM      7  N   UNL     1     137.450 106.675 159.899  0.00  0.00    -0.223 NA
ATOM      8  C   UNL     1     136.772 105.919 160.838  0.00  0.00    +0.220 A 
ATOM      9  N   UNL     1     135.420 105.637 160.717  0.00  0.00    -0.283 N 
ATOM     36  H   UNL     1     134.958 105.069 161.427  0.00  0.00    +0.155 HD
ATOM     37  N   UNL     1     137.427 105.437 161.915  0.00  0.00    -0.214 NA
BRANCH   4   3
ATOM      1  C   UNL     1     141.111 105.045 165.184  0.00  0.00    +0.020 A 
ATOM      2  C   UNL     1     140.564 105.648 163.991  0.00  0.00    +0.013 A 
ATOM      3  C   UNL     1     139.376 105.094 163.353  0.00  0.00    +0.019 A 
ATOM     38  C   UNL     1     138.760 103.920 163.954  0.00  0.00    +0.120 A 
ATOM     39  N   UNL     1     139.310 103.360 165.103  0.00  0.00    -0.263 NA
ATOM     40  C   UNL     1     140.454 103.883 165.724  0.00  0.00    +0.111 A 
ENDBRANCH   4   3
ENDBRANCH  10   9
BRANCH  12  13
ATOM     13  N   UNL     1     132.780 109.307 158.640  0.00  0.00    -0.281 N 
ATOM     14  C   UNL     1     131.568 109.698 159.184  0.00  0.00    +0.248 C 
ATOM     30  O   UNL     1     130.693 108.927 159.550  0.00  0.00    -0.270 OA
ATOM     31  H   UNL     1     133.332 110.043 158.200  0.00  0.00    +0.155 HD
BRANCH  14  15
ATOM     15  C   UNL     1     131.280 111.157 159.331  0.00  0.00    +0.037 A 
ATOM     16  C   UNL     1     130.175 111.634 160.167  0.00  0.00    +0.013 A 
ATOM     17  C   UNL     1     129.909 113.046 160.278  0.00  0.00    +0.005 A 
ATOM     18  C   UNL     1     130.750 113.993 159.549  0.00  0.00    -0.033 A 
ATOM     28  C   UNL     1     131.842 113.493 158.731  0.00  0.00    +0.005 A 
ATOM     29  C   UNL     1     132.106 112.110 158.619  0.00  0.00    +0.013 A 
BRANCH  18  19
ATOM     19  C   UNL     1     130.525 115.516 159.592  0.00  0.00    +0.119 C 
BRANCH  19  20
ATOM     20  N   UNL     1     129.752 116.061 160.747  0.00  0.00    -0.302 NA
ATOM     21  C   UNL     1     129.140 117.430 160.435  0.00  0.00    +0.066 C 
ATOM     22  C   UNL     1     128.316 117.975 161.647  0.00  0.00    -0.064 C 
ATOM     23  N   UNL     1     129.218 118.053 162.879  0.00  0.00    +0.379 N 
ATOM     24  C   UNL     1     128.462 118.620 164.005  0.00  0.00    -0.096 C 
ATOM     25  H   UNL     1     130.052 118.755 162.644  0.00  0.00    -0.082 HD
ATOM     26  C   UNL     1     129.833 116.697 163.195  0.00  0.00    -0.064 C 
ATOM     27  C   UNL     1     130.625 116.151 161.975  0.00  0.00    +0.066 C 
ENDBRANCH  19  20
ENDBRANCH  18  19
ENDBRANCH  14  15
ENDBRANCH  12  13
TORSDOF 6
ENDMDL
MODEL 5
REMARK VINA RESULT:      -8.0     33.114     38.501
REMARK  Name = C:\Users\Docking\Desktop\test protocol\1iep_ligandH.pdb
REMARK  8 active torsions:
REMARK  status: ('A' for Active; 'I' for Inactive)
REMARK    1  A    between atoms: _5  and  _11
REMARK    2  A    between atoms: _19  and  _21
REMARK    3  A    between atoms: _22  and  _66
REMARK    4  A    between atoms: _27  and  _30
REMARK    5  A    between atoms: _32  and  _33
REMARK    6  A    between atoms: _38  and  _43
REMARK    7  A    between atoms: _43  and  _46
REMARK    8  A    between atoms: _53  and  _55
REMARK                            x       y       z     vdW  Elec       q    Type
REMARK                         _______ _______ _______ _____ _____    ______ ____
ROOT
ATOM     10  C   UNL     1     133.926 108.110 150.058  0.00  0.00    +0.038 A 
ATOM     11  C   UNL     1     133.849 109.375 149.421  0.00  0.00    +0.047 A 
ATOM     12  C   UNL     1     132.689 109.748 148.626  0.00  0.00    +0.035 A 
ATOM     32  C   UNL     1     131.623 108.810 148.504  0.00  0.00    +0.024 A 
ATOM     33  C   UNL     1     131.685 107.519 149.144  0.00  0.00    +0.007 A 
ATOM     34  C   UNL     1     132.828 107.145 149.927  0.00  0.00    -0.029 A 
ATOM     35  C   UNL     1     132.844 105.745 150.585  0.00  0.00    +0.045 C 
ENDROOT
BRANCH  10   9
ATOM      4  C   UNL     1     136.448 108.181 154.141  0.00  0.00    +0.077 A 
ATOM      5  C   UNL     1     135.425 108.913 154.829  0.00  0.00    +0.048 A 
ATOM      6  C   UNL     1     134.268 109.258 154.095  0.00  0.00    +0.116 A 
ATOM      7  N   UNL     1     134.154 108.893 152.771  0.00  0.00    -0.223 NA
ATOM      8  C   UNL     1     135.160 108.189 152.137  0.00  0.00    +0.220 A 
ATOM      9  N   UNL     1     135.063 107.805 150.808  0.00  0.00    -0.283 N 
ATOM     36  H   UNL     1     135.831 107.292 150.374  0.00  0.00    +0.155 HD
ATOM     37  N   UNL     1     136.276 107.849 152.816  0.00  0.00    -0.214 NA
BRANCH   4   3
ATOM      1  C   UNL     1     139.049 106.765 156.695  0.00  0.00    +0.020 A 
ATOM      2  C   UNL     1     137.788 107.174 156.123  0.00  0.00    +0.013 A 
ATOM      3  C   UNL     1     137.728 107.741 154.782  0.00  0.00    +0.019 A 
ATOM     38  C   UNL     1     138.972 107.881 154.040  0.00  0.00    +0.120 A 
ATOM     39  N   UNL     1     140.172 107.479 154.618  0.00  0.00    -0.263 NA
ATOM     40  C   UNL     1     140.242 106.933 155.908  0.00  0.00    +0.111 A 
ENDBRANCH   4   3
ENDBRANCH  10   9
BRANCH  12  13
ATOM     13  N   UNL     1     132.558 111.015 147.950  0.00  0.00    -0.281 N 
ATOM     14  C   UNL     1     132.528 112.281 148.511  0.00  0.00    +0.248 C 
ATOM     30  O   UNL     1     132.395 112.505 149.705  0.00  0.00    -0.270 OA
ATOM     31  H   UNL     1     132.478 110.973 146.934  0.00  0.00    +0.155 HD
BRANCH  14  15
ATOM     15  C   UNL     1     132.651 113.471 147.615  0.00  0.00    +0.037 A 
ATOM     16  C   UNL     1     132.118 114.778 148.010  0.00  0.00    +0.013 A 
ATOM     17  C   UNL     1     132.234 115.905 147.119  0.00  0.00    +0.005 A 
ATOM     18  C   UNL     1     132.888 115.731 145.824  0.00  0.00    -0.033 A 
ATOM     28  C   UNL     1     133.412 114.425 145.460  0.00  0.00    +0.005 A 
ATOM     29  C   UNL     1     133.299 113.317 146.330  0.00  0.00    +0.013 A 
BRANCH  18  19
ATOM     19  C   UNL     1     133.037 116.873 144.802  0.00  0.00    +0.119 C 
BRANCH  19  20
ATOM     20  N   UNL     1     133.040 118.269 145.333  0.00  0.00    -0.302 NA
ATOM     21  C   UNL     1     131.634 118.877 145.357  0.00  0.00    +0.066 C 
ATOM     22  C   UNL     1     131.652 120.329 145.936  0.00  0.00    -0.064 C 
ATOM     23  N   UNL     1     132.602 121.194 145.106  0.00  0.00    +0.379 N 
ATOM     24  C   UNL     1     132.577 122.574 145.611  0.00  0.00    -0.096 C 
ATOM     25  H   UNL     1     132.217 121.210 144.059  0.00  0.00    -0.082 HD
ATOM     26  C   UNL     1     134.001 120.596 145.073  0.00  0.00    -0.064 C 
ATOM     27  C   UNL     1     133.968 119.142 144.524  0.00  0.00    +0.066 C 
ENDBRANCH  19  20
ENDBRANCH  18  19
ENDBRANCH  14  15
ENDBRANCH  12  13
TORSDOF 6
ENDMDL
