MODEL 1
REMARK VINA RESULT:     -10.5      0.000      0.000
REMARK  Name = C:\Users\Docking\Desktop\test protocol\1iep_ligandH.pdb
REMARK  8 active torsions:
REMARK  status: ('A' for Active; 'I' for Inactive)
REMARK    1  A    between atoms: _5  and  _11
REMARK    2  A    between atoms: _19  and  _21
REMARK    3  A    between atoms: _22  and  _66
REMARK    4  A    between atoms: _27  and  _30
REMARK    5  A    between atoms: _32  and  _33
REMARK    6  A    between atoms: _38  and  _43
REMARK    7  A    between atoms: _43  and  _46
REMARK    8  A    between atoms: _53  and  _55
REMARK                            x       y       z     vdW  Elec       q    Type
REMARK                         _______ _______ _______ _____ _____    ______ ____
ROOT
ATOM     10  C   UNL     1     -17.060  10.889  -4.647  0.00  0.00    +0.038 A 
ATOM     11  C   UNL     1     -17.117   9.514  -4.990  0.00  0.00    +0.047 A 
ATOM     12  C   UNL     1     -16.299   8.531  -4.298  0.00  0.00    +0.035 A 
ATOM     32  C   UNL     1     -15.435   8.983  -3.258  0.00  0.00    +0.024 A 
ATOM     33  C   UNL     1     -15.364  10.377  -2.896  0.00  0.00    +0.007 A 
ATOM     34  C   UNL     1     -16.167  11.351  -3.577  0.00  0.00    -0.029 A 
ATOM     35  C   UNL     1     -16.045  12.833  -3.152  0.00  0.00    +0.045 C 
ENDROOT
BRANCH  10   9
ATOM      4  C   UNL     1     -21.203  13.220  -5.314  0.00  0.00    +0.077 A 
ATOM      5  C   UNL     1     -21.818  12.568  -4.194  0.00  0.00    +0.048 A 
ATOM      6  C   UNL     1     -21.037  11.634  -3.477  0.00  0.00    +0.116 A 
ATOM      7  N   UNL     1     -19.738  11.380  -3.860  0.00  0.00    -0.223 NA
ATOM      8  C   UNL     1     -19.175  12.025  -4.946  0.00  0.00    +0.220 A 
ATOM      9  N   UNL     1     -17.868  11.790  -5.344  0.00  0.00    -0.283 N 
ATOM     36  H   UNL     1     -17.492  12.280  -6.155  0.00  0.00    +0.155 HD
ATOM     37  N   UNL     1     -19.901  12.919  -5.649  0.00  0.00    -0.214 NA
BRANCH   4   3
ATOM      1  C   UNL     1     -23.970  15.306  -7.129  0.00  0.00    +0.020 A 
ATOM      2  C   UNL     1     -23.348  14.307  -6.290  0.00  0.00    +0.013 A 
ATOM      3  C   UNL     1     -21.898  14.234  -6.169  0.00  0.00    +0.019 A 
ATOM     38  C   UNL     1     -21.098  15.193  -6.916  0.00  0.00    +0.120 A 
ATOM     39  N   UNL     1     -21.725  16.143  -7.717  0.00  0.00    -0.263 NA
ATOM     40  C   UNL     1     -23.120  16.222  -7.842  0.00  0.00    +0.111 A 
ENDBRANCH   4   3
ENDBRANCH  10   9
BRANCH  12  13
ATOM     13  N   UNL     1     -16.308   7.123  -4.609  0.00  0.00    -0.281 N 
ATOM     14  C   UNL     1     -16.335   6.527  -5.859  0.00  0.00    +0.248 C 
ATOM     30  O   UNL     1     -16.572   7.119  -6.902  0.00  0.00    -0.270 OA
ATOM     31  H   UNL     1     -16.293   6.489  -3.810  0.00  0.00    +0.155 HD
BRANCH  14  15
ATOM     15  C   UNL     1     -16.075   5.059  -5.965  0.00  0.00    +0.037 A 
ATOM     16  C   UNL     1     -15.991   4.214  -4.771  0.00  0.00    +0.013 A 
ATOM     17  C   UNL     1     -15.723   2.804  -4.900  0.00  0.00    +0.005 A 
ATOM     18  C   UNL     1     -15.538   2.229  -6.230  0.00  0.00    -0.033 A 
ATOM     28  C   UNL     1     -15.632   3.089  -7.398  0.00  0.00    +0.005 A 
ATOM     29  C   UNL     1     -15.894   4.472  -7.275  0.00  0.00    +0.013 A 
BRANCH  18  19
ATOM     19  C   UNL     1     -15.227   0.738  -6.462  0.00  0.00    +0.119 C 
BRANCH  19  20
ATOM     20  N   UNL     1     -15.929  -0.250  -5.589  0.00  0.00    -0.302 NA
ATOM     21  C   UNL     1     -15.033  -0.753  -4.454  0.00  0.00    +0.066 C 
ATOM     22  C   UNL     1     -15.791  -1.769  -3.539  0.00  0.00    -0.064 C 
ATOM     23  N   UNL     1     -16.297  -2.937  -4.387  0.00  0.00    +0.379 N 
ATOM     24  C   UNL     1     -16.960  -3.922  -3.520  0.00  0.00    -0.096 C 
ATOM     25  H   UNL     1     -15.409  -3.432  -4.845  0.00  0.00    -0.082 HD
ATOM     26  C   UNL     1     -17.187  -2.445  -5.520  0.00  0.00    -0.064 C 
ATOM     27  C   UNL     1     -16.434  -1.414  -6.406  0.00  0.00    +0.066 C 
ENDBRANCH  19  20
ENDBRANCH  18  19
ENDBRANCH  14  15
ENDBRANCH  12  13
TORSDOF 6
ENDMDL
MODEL 2
REMARK VINA RESULT:     -10.4      4.442     12.966
REMARK  Name = C:\Users\Docking\Desktop\test protocol\1iep_ligandH.pdb
REMARK  8 active torsions:
REMARK  status: ('A' for Active; 'I' for Inactive)
REMARK    1  A    between atoms: _5  and  _11
REMARK    2  A    between atoms: _19  and  _21
REMARK    3  A    between atoms: _22  and  _66
REMARK    4  A    between atoms: _27  and  _30
REMARK    5  A    between atoms: _32  and  _33
REMARK    6  A    between atoms: _38  and  _43
REMARK    7  A    between atoms: _43  and  _46
REMARK    8  A    between atoms: _53  and  _55
REMARK                            x       y       z     vdW  Elec       q    Type
REMARK                         _______ _______ _______ _____ _____    ______ ____
ROOT
ATOM     10  C   UNL     1     -15.625   5.490  -7.899  0.00  0.00    +0.038 A 
ATOM     11  C   UNL     1     -16.191   6.775  -7.703  0.00  0.00    +0.047 A 
ATOM     12  C   UNL     1     -17.419   6.949  -6.941  0.00  0.00    +0.035 A 
ATOM     32  C   UNL     1     -18.042   5.791  -6.391  0.00  0.00    +0.024 A 
ATOM     33  C   UNL     1     -17.480   4.477  -6.581  0.00  0.00    +0.007 A 
ATOM     34  C   UNL     1     -16.271   4.299  -7.334  0.00  0.00    -0.029 A 
ATOM     35  C   UNL     1     -15.718   2.866  -7.512  0.00  0.00    +0.045 C 
ENDROOT
BRANCH  10   9
ATOM      4  C   UNL     1     -13.242   5.291 -12.060  0.00  0.00    +0.077 A 
ATOM      5  C   UNL     1     -14.451   5.384 -12.826  0.00  0.00    +0.048 A 
ATOM      6  C   UNL     1     -15.666   5.474 -12.110  0.00  0.00    +0.116 A 
ATOM      7  N   UNL     1     -15.660   5.471 -10.732  0.00  0.00    -0.223 NA
ATOM      8  C   UNL     1     -14.476   5.378 -10.025  0.00  0.00    +0.220 A 
ATOM      9  N   UNL     1     -14.445   5.381  -8.639  0.00  0.00    -0.283 N 
ATOM     36  H   UNL     1     -13.552   5.303  -8.154  0.00  0.00    +0.155 HD
ATOM     37  N   UNL     1     -13.302   5.289 -10.684  0.00  0.00    -0.214 NA
BRANCH   4   3
ATOM      1  C   UNL     1     -10.307   5.199 -14.645  0.00  0.00    +0.020 A 
ATOM      2  C   UNL     1     -11.644   5.301 -14.106  0.00  0.00    +0.013 A 
ATOM      3  C   UNL     1     -11.878   5.192 -12.671  0.00  0.00    +0.019 A 
ATOM     38  C   UNL     1     -10.730   4.980 -11.803  0.00  0.00    +0.120 A 
ATOM     39  N   UNL     1      -9.455   4.884 -12.351  0.00  0.00    -0.263 NA
ATOM     40  C   UNL     1      -9.217   4.986 -13.730  0.00  0.00    +0.111 A 
ENDBRANCH   4   3
ENDBRANCH  10   9
BRANCH  12  13
ATOM     13  N   UNL     1     -18.044   8.228  -6.716  0.00  0.00    -0.281 N 
ATOM     14  C   UNL     1     -17.983   9.018  -5.580  0.00  0.00    +0.248 C 
ATOM     30  O   UNL     1     -17.551   8.643  -4.500  0.00  0.00    -0.270 OA
ATOM     31  H   UNL     1     -18.600   8.596  -7.488  0.00  0.00    +0.155 HD
BRANCH  14  15
ATOM     15  C   UNL     1     -18.486  10.424  -5.649  0.00  0.00    +0.037 A 
ATOM     16  C   UNL     1     -19.480  10.923  -4.696  0.00  0.00    +0.013 A 
ATOM     17  C   UNL     1     -19.961  12.278  -4.796  0.00  0.00    +0.005 A 
ATOM     18  C   UNL     1     -19.447  13.145  -5.854  0.00  0.00    -0.033 A 
ATOM     28  C   UNL     1     -18.457  12.625  -6.783  0.00  0.00    +0.005 A 
ATOM     29  C   UNL     1     -17.984  11.297  -6.688  0.00  0.00    +0.013 A 
BRANCH  18  19
ATOM     19  C   UNL     1     -19.919  14.598  -6.049  0.00  0.00    +0.119 C 
BRANCH  19  20
ATOM     20  N   UNL     1     -21.369  14.880  -5.831  0.00  0.00    -0.302 NA
ATOM     21  C   UNL     1     -22.234  14.359  -6.982  0.00  0.00    +0.066 C 
ATOM     22  C   UNL     1     -23.751  14.643  -6.728  0.00  0.00    -0.064 C 
ATOM     23  N   UNL     1     -23.959  16.145  -6.531  0.00  0.00    +0.379 N 
ATOM     24  C   UNL     1     -25.392  16.422  -6.349  0.00  0.00    -0.096 C 
ATOM     25  H   UNL     1     -23.631  16.658  -7.465  0.00  0.00    -0.082 HD
ATOM     26  C   UNL     1     -23.101  16.672  -5.390  0.00  0.00    -0.064 C 
ATOM     27  C   UNL     1     -21.599  16.359  -5.638  0.00  0.00    +0.066 C 
ENDBRANCH  19  20
ENDBRANCH  18  19
ENDBRANCH  14  15
ENDBRANCH  12  13
TORSDOF 6
ENDMDL
MODEL 3
REMARK VINA RESULT:     -10.2      3.027      5.552
REMARK  Name = C:\Users\Docking\Desktop\test protocol\1iep_ligandH.pdb
REMARK  8 active torsions:
REMARK  status: ('A' for Active; 'I' for Inactive)
REMARK    1  A    between atoms: _5  and  _11
REMARK    2  A    between atoms: _19  and  _21
REMARK    3  A    between atoms: _22  and  _66
REMARK    4  A    between atoms: _27  and  _30
REMARK    5  A    between atoms: _32  and  _33
REMARK    6  A    between atoms: _38  and  _43
REMARK    7  A    between atoms: _43  and  _46
REMARK    8  A    between atoms: _53  and  _55
REMARK                            x       y       z     vdW  Elec       q    Type
REMARK                         _______ _______ _______ _____ _____    ______ ____
ROOT
ATOM     10  C   UNL     1     -17.236   6.028  -6.924  0.00  0.00    +0.038 A 
ATOM     11  C   UNL     1     -17.028   4.998  -5.973  0.00  0.00    +0.047 A 
ATOM     12  C   UNL     1     -16.047   3.948  -6.203  0.00  0.00    +0.035 A 
ATOM     32  C   UNL     1     -15.294   3.980  -7.413  0.00  0.00    +0.024 A 
ATOM     33  C   UNL     1     -15.494   5.020  -8.391  0.00  0.00    +0.007 A 
ATOM     34  C   UNL     1     -16.461   6.057  -8.171  0.00  0.00    -0.029 A 
ATOM     35  C   UNL     1     -16.638   7.143  -9.257  0.00  0.00    +0.045 C 
ENDROOT
BRANCH  10   9
ATOM      4  C   UNL     1     -18.660  10.053  -4.731  0.00  0.00    +0.077 A 
ATOM      5  C   UNL     1     -17.406  10.195  -4.049  0.00  0.00    +0.048 A 
ATOM      6  C   UNL     1     -16.423   9.207  -4.284  0.00  0.00    +0.116 A 
ATOM      7  N   UNL     1     -16.686   8.160  -5.140  0.00  0.00    -0.223 NA
ATOM      8  C   UNL     1     -17.907   8.052  -5.781  0.00  0.00    +0.220 A 
ATOM      9  N   UNL     1     -18.190   7.011  -6.652  0.00  0.00    -0.283 N 
ATOM     36  H   UNL     1     -19.106   6.963  -7.099  0.00  0.00    +0.155 HD
ATOM     37  N   UNL     1     -18.862   8.981  -5.571  0.00  0.00    -0.214 NA
BRANCH   4   3
ATOM      1  C   UNL     1     -21.750  11.999  -3.330  0.00  0.00    +0.020 A 
ATOM      2  C   UNL     1     -20.667  11.047  -3.419  0.00  0.00    +0.013 A 
ATOM      3  C   UNL     1     -19.796  11.017  -4.587  0.00  0.00    +0.019 A 
ATOM     38  C   UNL     1     -20.050  11.972  -5.656  0.00  0.00    +0.120 A 
ATOM     39  N   UNL     1     -21.101  12.876  -5.543  0.00  0.00    -0.263 NA
ATOM     40  C   UNL     1     -21.947  12.913  -4.424  0.00  0.00    +0.111 A 
ENDBRANCH   4   3
ENDBRANCH  10   9
BRANCH  12  13
ATOM     13  N   UNL     1     -15.798   2.871  -5.277  0.00  0.00    -0.281 N 
ATOM     14  C   UNL     1     -15.547   1.540  -5.566  0.00  0.00    +0.248 C 
ATOM     30  O   UNL     1     -15.711   1.028  -6.664  0.00  0.00    -0.270 OA
ATOM     31  H   UNL     1     -15.808   3.121  -4.288  0.00  0.00    +0.155 HD
BRANCH  14  15
ATOM     15  C   UNL     1     -15.057   0.644  -4.475  0.00  0.00    +0.037 A 
ATOM     16  C   UNL     1     -15.200  -0.812  -4.565  0.00  0.00    +0.013 A 
ATOM     17  C   UNL     1     -14.734  -1.652  -3.491  0.00  0.00    +0.005 A 
ATOM     18  C   UNL     1     -14.118  -1.038  -2.317  0.00  0.00    -0.033 A 
ATOM     28  C   UNL     1     -13.984   0.408  -2.256  0.00  0.00    +0.005 A 
ATOM     29  C   UNL     1     -14.440   1.235  -3.307  0.00  0.00    +0.013 A 
BRANCH  18  19
ATOM     19  C   UNL     1     -13.611  -1.856  -1.114  0.00  0.00    +0.119 C 
BRANCH  19  20
ATOM     20  N   UNL     1     -14.622  -2.278  -0.099  0.00  0.00    -0.302 NA
ATOM     21  C   UNL     1     -14.105  -2.108   1.332  0.00  0.00    +0.066 C 
ATOM     22  C   UNL     1     -15.184  -2.533   2.381  0.00  0.00    -0.064 C 
ATOM     23  N   UNL     1     -15.598  -3.982   2.124  0.00  0.00    +0.379 N 
ATOM     24  C   UNL     1     -16.569  -4.403   3.144  0.00  0.00    -0.096 C 
ATOM     25  H   UNL     1     -14.690  -4.619   2.238  0.00  0.00    -0.082 HD
ATOM     26  C   UNL     1     -16.111  -4.161   0.702  0.00  0.00    -0.064 C 
ATOM     27  C   UNL     1     -15.042  -3.708  -0.332  0.00  0.00    +0.066 C 
ENDBRANCH  19  20
ENDBRANCH  18  19
ENDBRANCH  14  15
ENDBRANCH  12  13
TORSDOF 6
ENDMDL
MODEL 4
REMARK VINA RESULT:     -10.0      1.642      2.533
REMARK  Name = C:\Users\Docking\Desktop\test protocol\1iep_ligandH.pdb
REMARK  8 active torsions:
REMARK  status: ('A' for Active; 'I' for Inactive)
REMARK    1  A    between atoms: _5  and  _11
REMARK    2  A    between atoms: _19  and  _21
REMARK    3  A    between atoms: _22  and  _66
REMARK    4  A    between atoms: _27  and  _30
REMARK    5  A    between atoms: _32  and  _33
REMARK    6  A    between atoms: _38  and  _43
REMARK    7  A    between atoms: _43  and  _46
REMARK    8  A    between atoms: _53  and  _55
REMARK                            x       y       z     vdW  Elec       q    Type
REMARK                         _______ _______ _______ _____ _____    ______ ____
ROOT
ATOM     10  C   UNL     1     -17.099  10.986  -4.724  0.00  0.00    +0.038 A 
ATOM     11  C   UNL     1     -17.176   9.631  -5.135  0.00  0.00    +0.047 A 
ATOM     12  C   UNL     1     -16.369   8.603  -4.495  0.00  0.00    +0.035 A 
ATOM     32  C   UNL     1     -15.496   8.992  -3.437  0.00  0.00    +0.024 A 
ATOM     33  C   UNL     1     -15.404  10.365  -3.008  0.00  0.00    +0.007 A 
ATOM     34  C   UNL     1     -16.196  11.383  -3.637  0.00  0.00    -0.029 A 
ATOM     35  C   UNL     1     -16.052  12.840  -3.140  0.00  0.00    +0.045 C 
ENDROOT
BRANCH  10   9
ATOM      4  C   UNL     1     -21.247  13.322  -5.333  0.00  0.00    +0.077 A 
ATOM      5  C   UNL     1     -21.888  12.578  -4.287  0.00  0.00    +0.048 A 
ATOM      6  C   UNL     1     -21.117  11.599  -3.621  0.00  0.00    +0.116 A 
ATOM      7  N   UNL     1     -19.804  11.388  -3.983  0.00  0.00    -0.223 NA
ATOM      8  C   UNL     1     -19.218  12.121  -4.998  0.00  0.00    +0.220 A 
ATOM      9  N   UNL     1     -17.897  11.931  -5.374  0.00  0.00    -0.283 N 
ATOM     36  H   UNL     1     -17.503  12.487  -6.132  0.00  0.00    +0.155 HD
ATOM     37  N   UNL     1     -19.933  13.061  -5.650  0.00  0.00    -0.214 NA
BRANCH   4   3
ATOM      1  C   UNL     1     -23.986  15.534  -7.038  0.00  0.00    +0.020 A 
ATOM      2  C   UNL     1     -23.378  14.479  -6.261  0.00  0.00    +0.013 A 
ATOM      3  C   UNL     1     -21.929  14.393  -6.127  0.00  0.00    +0.019 A 
ATOM     38  C   UNL     1     -21.118  15.398  -6.797  0.00  0.00    +0.120 A 
ATOM     39  N   UNL     1     -21.732  16.401  -7.541  0.00  0.00    -0.263 NA
ATOM     40  C   UNL     1     -23.125  16.493  -7.678  0.00  0.00    +0.111 A 
ENDBRANCH   4   3
ENDBRANCH  10   9
BRANCH  12  13
ATOM     13  N   UNL     1     -16.398   7.213  -4.874  0.00  0.00    -0.281 N 
ATOM     14  C   UNL     1     -16.236   6.671  -6.139  0.00  0.00    +0.248 C 
ATOM     30  O   UNL     1     -16.254   7.319  -7.175  0.00  0.00    -0.270 OA
ATOM     31  H   UNL     1     -16.558   6.546  -4.119  0.00  0.00    +0.155 HD
BRANCH  14  15
ATOM     15  C   UNL     1     -16.041   5.196  -6.273  0.00  0.00    +0.037 A 
ATOM     16  C   UNL     1     -15.905   4.564  -7.588  0.00  0.00    +0.013 A 
ATOM     17  C   UNL     1     -15.735   3.136  -7.690  0.00  0.00    +0.005 A 
ATOM     18  C   UNL     1     -15.698   2.330  -6.472  0.00  0.00    -0.033 A 
ATOM     28  C   UNL     1     -15.830   2.984  -5.180  0.00  0.00    +0.005 A 
ATOM     29  C   UNL     1     -15.998   4.383  -5.077  0.00  0.00    +0.013 A 
BRANCH  18  19
ATOM     19  C   UNL     1     -15.541   0.798  -6.487  0.00  0.00    +0.119 C 
BRANCH  19  20
ATOM     20  N   UNL     1     -14.602   0.217  -7.492  0.00  0.00    -0.302 NA
ATOM     21  C   UNL     1     -14.987   0.597  -8.925  0.00  0.00    +0.066 C 
ATOM     22  C   UNL     1     -13.981  -0.001  -9.962  0.00  0.00    -0.064 C 
ATOM     23  N   UNL     1     -13.929  -1.521  -9.800  0.00  0.00    +0.379 N 
ATOM     24  C   UNL     1     -13.028  -2.092 -10.812  0.00  0.00    -0.096 C 
ATOM     25  H   UNL     1     -14.953  -1.917  -9.997  0.00  0.00    -0.082 HD
ATOM     26  C   UNL     1     -13.550  -1.908  -8.378  0.00  0.00    -0.064 C 
ATOM     27  C   UNL     1     -14.539  -1.284  -7.353  0.00  0.00    +0.066 C 
ENDBRANCH  19  20
ENDBRANCH  18  19
ENDBRANCH  14  15
ENDBRANCH  12  13
TORSDOF 6
ENDMDL
MODEL 5
REMARK VINA RESULT:     -10.0      4.036      5.739
REMARK  Name = C:\Users\Docking\Desktop\test protocol\1iep_ligandH.pdb
REMARK  8 active torsions:
REMARK  status: ('A' for Active; 'I' for Inactive)
REMARK    1  A    between atoms: _5  and  _11
REMARK    2  A    between atoms: _19  and  _21
REMARK    3  A    between atoms: _22  and  _66
REMARK    4  A    between atoms: _27  and  _30
REMARK    5  A    between atoms: _32  and  _33
REMARK    6  A    between atoms: _38  and  _43
REMARK    7  A    between atoms: _43  and  _46
REMARK    8  A    between atoms: _53  and  _55
REMARK                            x       y       z     vdW  Elec       q    Type
REMARK                         _______ _______ _______ _____ _____    ______ ____
ROOT
ATOM     10  C   UNL     1     -18.432  10.734  -4.245  0.00  0.00    +0.038 A 
ATOM     11  C   UNL     1     -18.078   9.727  -5.178  0.00  0.00    +0.047 A 
ATOM     12  C   UNL     1     -16.849   8.962  -5.031  0.00  0.00    +0.035 A 
ATOM     32  C   UNL     1     -16.005   9.249  -3.919  0.00  0.00    +0.024 A 
ATOM     33  C   UNL     1     -16.349  10.271  -2.961  0.00  0.00    +0.007 A 
ATOM     34  C   UNL     1     -17.558  11.030  -3.103  0.00  0.00    -0.029 A 
ATOM     35  C   UNL     1     -17.873  12.117  -2.050  0.00  0.00    +0.045 C 
ENDROOT
BRANCH  10   9
ATOM      4  C   UNL     1     -20.902  14.516  -5.868  0.00  0.00    +0.077 A 
ATOM      5  C   UNL     1     -19.714  15.158  -6.353  0.00  0.00    +0.048 A 
ATOM      6  C   UNL     1     -18.487  14.485  -6.159  0.00  0.00    +0.116 A 
ATOM      7  N   UNL     1     -18.462  13.262  -5.526  0.00  0.00    -0.223 NA
ATOM      8  C   UNL     1     -19.625  12.671  -5.068  0.00  0.00    +0.220 A 
ATOM      9  N   UNL     1     -19.624  11.438  -4.436  0.00  0.00    -0.283 N 
ATOM     36  H   UNL     1     -20.502  11.039  -4.106  0.00  0.00    +0.155 HD
ATOM     37  N   UNL     1     -20.809  13.294  -5.240  0.00  0.00    -0.214 NA
BRANCH   4   3
ATOM      1  C   UNL     1     -24.666  15.030  -6.799  0.00  0.00    +0.020 A 
ATOM      2  C   UNL     1     -23.359  14.423  -6.700  0.00  0.00    +0.013 A 
ATOM      3  C   UNL     1     -22.274  15.100  -6.001  0.00  0.00    +0.019 A 
ATOM     38  C   UNL     1     -22.547  16.401  -5.407  0.00  0.00    +0.120 A 
ATOM     39  N   UNL     1     -23.816  16.962  -5.520  0.00  0.00    -0.263 NA
ATOM     40  C   UNL     1     -24.867  16.320  -6.192  0.00  0.00    +0.111 A 
ENDBRANCH   4   3
ENDBRANCH  10   9
BRANCH  12  13
ATOM     13  N   UNL     1     -16.434   7.933  -5.951  0.00  0.00    -0.281 N 
ATOM     14  C   UNL     1     -17.172   7.352  -6.969  0.00  0.00    +0.248 C 
ATOM     30  O   UNL     1     -18.379   7.481  -7.107  0.00  0.00    -0.270 OA
ATOM     31  H   UNL     1     -15.479   7.590  -5.837  0.00  0.00    +0.155 HD
BRANCH  14  15
ATOM     15  C   UNL     1     -16.469   6.493  -7.971  0.00  0.00    +0.037 A 
ATOM     16  C   UNL     1     -15.987   5.155  -7.619  0.00  0.00    +0.013 A 
ATOM     17  C   UNL     1     -15.298   4.354  -8.599  0.00  0.00    +0.005 A 
ATOM     18  C   UNL     1     -15.088   4.890  -9.942  0.00  0.00    -0.033 A 
ATOM     28  C   UNL     1     -15.581   6.218 -10.266  0.00  0.00    +0.005 A 
ATOM     29  C   UNL     1     -16.257   7.006  -9.307  0.00  0.00    +0.013 A 
BRANCH  18  19
ATOM     19  C   UNL     1     -14.344   4.113 -11.045  0.00  0.00    +0.119 C 
BRANCH  19  20
ATOM     20  N   UNL     1     -13.271   4.840 -11.788  0.00  0.00    -0.302 NA
ATOM     21  C   UNL     1     -13.260   4.482 -13.277  0.00  0.00    +0.066 C 
ATOM     22  C   UNL     1     -12.146   5.268 -14.042  0.00  0.00    -0.064 C 
ATOM     23  N   UNL     1     -10.787   4.973 -13.404  0.00  0.00    +0.379 N 
ATOM     24  C   UNL     1      -9.731   5.665 -14.157  0.00  0.00    -0.096 C 
ATOM     25  H   UNL     1     -10.604   3.877 -13.492  0.00  0.00    -0.082 HD
ATOM     26  C   UNL     1     -10.791   5.323 -11.923  0.00  0.00    -0.064 C 
ATOM     27  C   UNL     1     -11.920   4.559 -11.177  0.00  0.00    +0.066 C 
ENDBRANCH  19  20
ENDBRANCH  18  19
ENDBRANCH  14  15
ENDBRANCH  12  13
TORSDOF 6
ENDMDL
