MODEL 1
REMARK VINA RESULT:     -11.4      0.000      0.000
REMARK  Name = C:\Users\Docking\Desktop\test protocol\1iep_ligandH.pdb
REMARK  8 active torsions:
REMARK  status: ('A' for Active; 'I' for Inactive)
REMARK    1  A    between atoms: _5  and  _11
REMARK    2  A    between atoms: _19  and  _21
REMARK    3  A    between atoms: _22  and  _66
REMARK    4  A    between atoms: _27  and  _30
REMARK    5  A    between atoms: _32  and  _33
REMARK    6  A    between atoms: _38  and  _43
REMARK    7  A    between atoms: _43  and  _46
REMARK    8  A    between atoms: _53  and  _55
REMARK                            x       y       z     vdW  Elec       q    Type
REMARK                         _______ _______ _______ _____ _____    ______ ____
ROOT
ATOM     10  C   UNL     1     -14.895  -5.673   9.903  0.00  0.00    +0.038 A 
ATOM     11  C   UNL     1     -15.132  -4.464   9.199  0.00  0.00    +0.047 A 
ATOM     12  C   UNL     1     -16.053  -4.417   8.074  0.00  0.00    +0.035 A 
ATOM     32  C   UNL     1     -16.717  -5.619   7.693  0.00  0.00    +0.024 A 
ATOM     33  C   UNL     1     -16.487  -6.857   8.397  0.00  0.00    +0.007 A 
ATOM     34  C   UNL     1     -15.578  -6.910   9.506  0.00  0.00    -0.029 A 
ATOM     35  C   UNL     1     -15.365  -8.265  10.220  0.00  0.00    +0.045 C 
ENDROOT
BRANCH  10   9
ATOM      4  C   UNL     1     -13.880  -5.101  14.559  0.00  0.00    +0.077 A 
ATOM      5  C   UNL     1     -15.239  -4.773  14.876  0.00  0.00    +0.048 A 
ATOM      6  C   UNL     1     -16.168  -4.755  13.811  0.00  0.00    +0.116 A 
ATOM      7  N   UNL     1     -15.756  -5.046  12.529  0.00  0.00    -0.223 NA
ATOM      8  C   UNL     1     -14.436  -5.357  12.257  0.00  0.00    +0.220 A 
ATOM      9  N   UNL     1     -14.001  -5.661  10.976  0.00  0.00    -0.283 N 
ATOM     36  H   UNL     1     -13.018  -5.878  10.816  0.00  0.00    +0.155 HD
ATOM     37  N   UNL     1     -13.530  -5.380  13.256  0.00  0.00    -0.214 NA
BRANCH   4   3
ATOM      1  C   UNL     1     -10.563  -4.426  16.519  0.00  0.00    +0.020 A 
ATOM      2  C   UNL     1     -11.593  -4.326  15.511  0.00  0.00    +0.013 A 
ATOM      3  C   UNL     1     -12.783  -5.165  15.576  0.00  0.00    +0.019 A 
ATOM     38  C   UNL     1     -12.901  -6.102  16.683  0.00  0.00    +0.120 A 
ATOM     39  N   UNL     1     -11.892  -6.178  17.638  0.00  0.00    -0.263 NA
ATOM     40  C   UNL     1     -10.742  -5.377  17.585  0.00  0.00    +0.111 A 
ENDBRANCH   4   3
ENDBRANCH  10   9
BRANCH  12  13
ATOM     13  N   UNL     1     -16.327  -3.221   7.316  0.00  0.00    -0.281 N 
ATOM     14  C   UNL     1     -17.111  -2.141   7.685  0.00  0.00    +0.248 C 
ATOM     30  O   UNL     1     -17.873  -2.134   8.641  0.00  0.00    -0.270 OA
ATOM     31  H   UNL     1     -15.890  -3.164   6.396  0.00  0.00    +0.155 HD
BRANCH  14  15
ATOM     15  C   UNL     1     -17.052  -0.892   6.865  0.00  0.00    +0.037 A 
ATOM     16  C   UNL     1     -17.485   0.397   7.412  0.00  0.00    +0.013 A 
ATOM     17  C   UNL     1     -17.434   1.583   6.594  0.00  0.00    +0.005 A 
ATOM     18  C   UNL     1     -16.945   1.485   5.221  0.00  0.00    -0.033 A 
ATOM     28  C   UNL     1     -16.517   0.195   4.706  0.00  0.00    +0.005 A 
ATOM     29  C   UNL     1     -16.567  -0.970   5.504  0.00  0.00    +0.013 A 
BRANCH  18  19
ATOM     19  C   UNL     1     -16.875   2.695   4.270  0.00  0.00    +0.119 C 
BRANCH  19  20
ATOM     20  N   UNL     1     -15.520   3.226   3.938  0.00  0.00    -0.302 NA
ATOM     21  C   UNL     1     -14.953   2.598   2.661  0.00  0.00    +0.066 C 
ATOM     22  C   UNL     1     -13.544   3.182   2.316  0.00  0.00    -0.064 C 
ATOM     23  N   UNL     1     -12.599   2.955   3.497  0.00  0.00    +0.379 N 
ATOM     24  C   UNL     1     -11.258   3.451   3.154  0.00  0.00    -0.096 C 
ATOM     25  H   UNL     1     -12.521   1.855   3.662  0.00  0.00    -0.082 HD
ATOM     26  C   UNL     1     -13.156   3.574   4.771  0.00  0.00    -0.064 C 
ATOM     27  C   UNL     1     -14.568   3.009   5.089  0.00  0.00    +0.066 C 
ENDBRANCH  19  20
ENDBRANCH  18  19
ENDBRANCH  14  15
ENDBRANCH  12  13
TORSDOF 6
ENDMDL
MODEL 2
REMARK VINA RESULT:     -11.4      2.173     11.788
REMARK  Name = C:\Users\Docking\Desktop\test protocol\1iep_ligandH.pdb
REMARK  8 active torsions:
REMARK  status: ('A' for Active; 'I' for Inactive)
REMARK    1  A    between atoms: _5  and  _11
REMARK    2  A    between atoms: _19  and  _21
REMARK    3  A    between atoms: _22  and  _66
REMARK    4  A    between atoms: _27  and  _30
REMARK    5  A    between atoms: _32  and  _33
REMARK    6  A    between atoms: _38  and  _43
REMARK    7  A    between atoms: _43  and  _46
REMARK    8  A    between atoms: _53  and  _55
REMARK                            x       y       z     vdW  Elec       q    Type
REMARK                         _______ _______ _______ _____ _____    ______ ____
ROOT
ATOM     10  C   UNL     1     -15.004   2.793   4.802  0.00  0.00    +0.038 A 
ATOM     11  C   UNL     1     -15.051   1.642   5.630  0.00  0.00    +0.047 A 
ATOM     12  C   UNL     1     -16.270   0.860   5.762  0.00  0.00    +0.035 A 
ATOM     32  C   UNL     1     -17.422   1.276   5.033  0.00  0.00    +0.024 A 
ATOM     33  C   UNL     1     -17.392   2.444   4.188  0.00  0.00    +0.007 A 
ATOM     34  C   UNL     1     -16.194   3.221   4.056  0.00  0.00    -0.029 A 
ATOM     35  C   UNL     1     -16.221   4.467   3.141  0.00  0.00    +0.045 C 
ENDROOT
BRANCH  10   9
ATOM      4  C   UNL     1     -10.396   3.187   3.519  0.00  0.00    +0.077 A 
ATOM      5  C   UNL     1     -10.362   1.847   3.008  0.00  0.00    +0.048 A 
ATOM      6  C   UNL     1     -11.549   1.087   3.101  0.00  0.00    +0.116 A 
ATOM      7  N   UNL     1     -12.681   1.637   3.664  0.00  0.00    -0.223 NA
ATOM      8  C   UNL     1     -12.679   2.932   4.149  0.00  0.00    +0.220 A 
ATOM      9  N   UNL     1     -13.807   3.507   4.713  0.00  0.00    -0.283 N 
ATOM     36  H   UNL     1     -13.763   4.463   5.065  0.00  0.00    +0.155 HD
ATOM     37  N   UNL     1     -11.557   3.678   4.073  0.00  0.00    -0.214 NA
BRANCH   4   3
ATOM      1  C   UNL     1      -8.194   6.419   3.448  0.00  0.00    +0.020 A 
ATOM      2  C   UNL     1      -9.360   5.567   3.476  0.00  0.00    +0.013 A 
ATOM      3  C   UNL     1      -9.222   4.116   3.490  0.00  0.00    +0.019 A 
ATOM     38  C   UNL     1      -7.879   3.555   3.476  0.00  0.00    +0.120 A 
ATOM     39  N   UNL     1      -6.775   4.401   3.448  0.00  0.00    -0.263 NA
ATOM     40  C   UNL     1      -6.895   5.799   3.432  0.00  0.00    +0.111 A 
ENDBRANCH   4   3
ENDBRANCH  10   9
BRANCH  12  13
ATOM     13  N   UNL     1     -16.380  -0.313   6.593  0.00  0.00    -0.281 N 
ATOM     14  C   UNL     1     -16.987  -1.520   6.288  0.00  0.00    +0.248 C 
ATOM     30  O   UNL     1     -17.719  -1.702   5.326  0.00  0.00    -0.270 OA
ATOM     31  H   UNL     1     -15.959  -0.245   7.520  0.00  0.00    +0.155 HD
BRANCH  14  15
ATOM     15  C   UNL     1     -16.761  -2.691   7.189  0.00  0.00    +0.037 A 
ATOM     16  C   UNL     1     -17.120  -4.050   6.774  0.00  0.00    +0.013 A 
ATOM     17  C   UNL     1     -16.906  -5.159   7.670  0.00  0.00    +0.005 A 
ATOM     18  C   UNL     1     -16.329  -4.914   8.989  0.00  0.00    -0.033 A 
ATOM     28  C   UNL     1     -15.978  -3.557   9.373  0.00  0.00    +0.005 A 
ATOM     29  C   UNL     1     -16.186  -2.467   8.498  0.00  0.00    +0.013 A 
BRANCH  18  19
ATOM     19  C   UNL     1     -16.086  -6.035  10.017  0.00  0.00    +0.119 C 
BRANCH  19  20
ATOM     20  N   UNL     1     -15.471  -5.645  11.321  0.00  0.00    -0.302 NA
ATOM     21  C   UNL     1     -14.320  -6.576  11.714  0.00  0.00    +0.066 C 
ATOM     22  C   UNL     1     -13.673  -6.141  13.069  0.00  0.00    -0.064 C 
ATOM     23  N   UNL     1     -14.746  -6.116  14.159  0.00  0.00    +0.379 N 
ATOM     24  C   UNL     1     -14.130  -5.763  15.446  0.00  0.00    -0.096 C 
ATOM     25  H   UNL     1     -15.158  -7.148  14.252  0.00  0.00    -0.082 HD
ATOM     26  C   UNL     1     -15.895  -5.194  13.774  0.00  0.00    -0.064 C 
ATOM     27  C   UNL     1     -16.512  -5.618  12.412  0.00  0.00    +0.066 C 
ENDBRANCH  19  20
ENDBRANCH  18  19
ENDBRANCH  14  15
ENDBRANCH  12  13
TORSDOF 6
ENDMDL
MODEL 3
REMARK VINA RESULT:     -11.2      2.002     12.023
REMARK  Name = C:\Users\Docking\Desktop\test protocol\1iep_ligandH.pdb
REMARK  8 active torsions:
REMARK  status: ('A' for Active; 'I' for Inactive)
REMARK    1  A    between atoms: _5  and  _11
REMARK    2  A    between atoms: _19  and  _21
REMARK    3  A    between atoms: _22  and  _66
REMARK    4  A    between atoms: _27  and  _30
REMARK    5  A    between atoms: _32  and  _33
REMARK    6  A    between atoms: _38  and  _43
REMARK    7  A    between atoms: _43  and  _46
REMARK    8  A    between atoms: _53  and  _55
REMARK                            x       y       z     vdW  Elec       q    Type
REMARK                         _______ _______ _______ _____ _____    ______ ____
ROOT
ATOM     10  C   UNL     1     -15.695   1.266   3.776  0.00  0.00    +0.038 A 
ATOM     11  C   UNL     1     -15.603   0.186   4.692  0.00  0.00    +0.047 A 
ATOM     12  C   UNL     1     -16.672  -0.090   5.639  0.00  0.00    +0.035 A 
ATOM     32  C   UNL     1     -17.823   0.751   5.624  0.00  0.00    +0.024 A 
ATOM     33  C   UNL     1     -17.932   1.854   4.701  0.00  0.00    +0.007 A 
ATOM     34  C   UNL     1     -16.880   2.133   3.766  0.00  0.00    -0.029 A 
ATOM     35  C   UNL     1     -17.048   3.331   2.804  0.00  0.00    +0.045 C 
ENDROOT
BRANCH  10   9
ATOM      4  C   UNL     1     -11.360   3.026   2.710  0.00  0.00    +0.077 A 
ATOM      5  C   UNL     1     -11.195   3.578   4.024  0.00  0.00    +0.048 A 
ATOM      6  C   UNL     1     -12.253   3.393   4.942  0.00  0.00    +0.116 A 
ATOM      7  N   UNL     1     -13.386   2.705   4.564  0.00  0.00    -0.223 NA
ATOM      8  C   UNL     1     -13.513   2.187   3.289  0.00  0.00    +0.220 A 
ATOM      9  N   UNL     1     -14.639   1.485   2.889  0.00  0.00    -0.283 N 
ATOM     36  H   UNL     1     -14.698   1.125   1.937  0.00  0.00    +0.155 HD
ATOM     37  N   UNL     1     -12.517   2.352   2.393  0.00  0.00    -0.214 NA
BRANCH   4   3
ATOM      1  C   UNL     1      -9.278   4.297  -0.348  0.00  0.00    +0.020 A 
ATOM      2  C   UNL     1     -10.294   4.239   0.677  0.00  0.00    +0.013 A 
ATOM      3  C   UNL     1     -10.329   3.136   1.629  0.00  0.00    +0.019 A 
ATOM     38  C   UNL     1      -9.312   2.101   1.517  0.00  0.00    +0.120 A 
ATOM     39  N   UNL     1      -8.346   2.184   0.520  0.00  0.00    -0.263 NA
ATOM     40  C   UNL     1      -8.304   3.239  -0.404  0.00  0.00    +0.111 A 
ENDBRANCH   4   3
ENDBRANCH  10   9
BRANCH  12  13
ATOM     13  N   UNL     1     -16.631  -1.167   6.598  0.00  0.00    -0.281 N 
ATOM     14  C   UNL     1     -16.997  -2.489   6.409  0.00  0.00    +0.248 C 
ATOM     30  O   UNL     1     -17.620  -2.903   5.442  0.00  0.00    -0.270 OA
ATOM     31  H   UNL     1     -16.291  -0.924   7.528  0.00  0.00    +0.155 HD
BRANCH  14  15
ATOM     15  C   UNL     1     -16.631  -3.496   7.451  0.00  0.00    +0.037 A 
ATOM     16  C   UNL     1     -16.890  -4.924   7.254  0.00  0.00    +0.013 A 
ATOM     17  C   UNL     1     -16.542  -5.872   8.283  0.00  0.00    +0.005 A 
ATOM     18  C   UNL     1     -15.929  -5.393   9.519  0.00  0.00    -0.033 A 
ATOM     28  C   UNL     1     -15.678  -3.971   9.687  0.00  0.00    +0.005 A 
ATOM     29  C   UNL     1     -16.018  -3.039   8.681  0.00  0.00    +0.013 A 
BRANCH  18  19
ATOM     19  C   UNL     1     -15.544  -6.331  10.679  0.00  0.00    +0.119 C 
BRANCH  19  20
ATOM     20  N   UNL     1     -14.492  -5.852  11.624  0.00  0.00    -0.302 NA
ATOM     21  C   UNL     1     -13.369  -6.879  11.801  0.00  0.00    +0.066 C 
ATOM     22  C   UNL     1     -12.266  -6.353  12.776  0.00  0.00    -0.064 C 
ATOM     23  N   UNL     1     -12.901  -6.008  14.124  0.00  0.00    +0.379 N 
ATOM     24  C   UNL     1     -11.857  -5.568  15.060  0.00  0.00    -0.096 C 
ATOM     25  H   UNL     1     -13.352  -6.942  14.533  0.00  0.00    -0.082 HD
ATOM     26  C   UNL     1     -14.020  -4.990  13.957  0.00  0.00    -0.064 C 
ATOM     27  C   UNL     1     -15.097  -5.510  12.964  0.00  0.00    +0.066 C 
ENDBRANCH  19  20
ENDBRANCH  18  19
ENDBRANCH  14  15
ENDBRANCH  12  13
TORSDOF 6
ENDMDL
MODEL 4
REMARK VINA RESULT:     -11.1      8.365     13.336
REMARK  Name = C:\Users\Docking\Desktop\test protocol\1iep_ligandH.pdb
REMARK  8 active torsions:
REMARK  status: ('A' for Active; 'I' for Inactive)
REMARK    1  A    between atoms: _5  and  _11
REMARK    2  A    between atoms: _19  and  _21
REMARK    3  A    between atoms: _22  and  _66
REMARK    4  A    between atoms: _27  and  _30
REMARK    5  A    between atoms: _32  and  _33
REMARK    6  A    between atoms: _38  and  _43
REMARK    7  A    between atoms: _43  and  _46
REMARK    8  A    between atoms: _53  and  _55
REMARK                            x       y       z     vdW  Elec       q    Type
REMARK                         _______ _______ _______ _____ _____    ______ ____
ROOT
ATOM     10  C   UNL     1     -16.128   2.688   3.995  0.00  0.00    +0.038 A 
ATOM     11  C   UNL     1     -14.779   2.951   3.644  0.00  0.00    +0.047 A 
ATOM     12  C   UNL     1     -13.684   2.551   4.514  0.00  0.00    +0.035 A 
ATOM     32  C   UNL     1     -13.999   1.883   5.733  0.00  0.00    +0.024 A 
ATOM     33  C   UNL     1     -15.364   1.608   6.105  0.00  0.00    +0.007 A 
ATOM     34  C   UNL     1     -16.449   2.003   5.252  0.00  0.00    -0.029 A 
ATOM     35  C   UNL     1     -17.894   1.689   5.706  0.00  0.00    +0.045 C 
ENDROOT
BRANCH  10   9
ATOM      4  C   UNL     1     -19.011   1.962   0.226  0.00  0.00    +0.077 A 
ATOM      5  C   UNL     1     -18.434   0.677  -0.043  0.00  0.00    +0.048 A 
ATOM      6  C   UNL     1     -17.392   0.243   0.807  0.00  0.00    +0.116 A 
ATOM      7  N   UNL     1     -16.968   1.042   1.847  0.00  0.00    -0.223 NA
ATOM      8  C   UNL     1     -17.546   2.277   2.078  0.00  0.00    +0.220 A 
ATOM      9  N   UNL     1     -17.140   3.094   3.122  0.00  0.00    -0.283 N 
ATOM     36  H   UNL     1     -17.587   4.001   3.255  0.00  0.00    +0.155 HD
ATOM     37  N   UNL     1     -18.541   2.715   1.279  0.00  0.00    -0.214 NA
BRANCH   4   3
ATOM      1  C   UNL     1     -22.557   2.808  -1.193  0.00  0.00    +0.020 A 
ATOM      2  C   UNL     1     -21.522   2.202  -0.387  0.00  0.00    +0.013 A 
ATOM      3  C   UNL     1     -20.122   2.558  -0.581  0.00  0.00    +0.019 A 
ATOM     38  C   UNL     1     -19.801   3.539  -1.607  0.00  0.00    +0.120 A 
ATOM     39  N   UNL     1     -20.818   4.104  -2.369  0.00  0.00    -0.263 NA
ATOM     40  C   UNL     1     -22.169   3.768  -2.192  0.00  0.00    +0.111 A 
ENDBRANCH   4   3
ENDBRANCH  10   9
BRANCH  12  13
ATOM     13  N   UNL     1     -12.295   2.798   4.214  0.00  0.00    -0.281 N 
ATOM     14  C   UNL     1     -11.208   1.985   4.486  0.00  0.00    +0.248 C 
ATOM     30  O   UNL     1     -11.240   1.012   5.225  0.00  0.00    -0.270 OA
ATOM     31  H   UNL     1     -12.089   3.680   3.744  0.00  0.00    +0.155 HD
BRANCH  14  15
ATOM     15  C   UNL     1      -9.890   2.308   3.859  0.00  0.00    +0.037 A 
ATOM     16  C   UNL     1      -9.321   1.461   2.807  0.00  0.00    +0.013 A 
ATOM     17  C   UNL     1      -8.040   1.785   2.231  0.00  0.00    +0.005 A 
ATOM     18  C   UNL     1      -7.320   2.964   2.706  0.00  0.00    -0.033 A 
ATOM     28  C   UNL     1      -7.909   3.790   3.747  0.00  0.00    +0.005 A 
ATOM     29  C   UNL     1      -9.164   3.474   4.315  0.00  0.00    +0.013 A 
BRANCH  18  19
ATOM     19  C   UNL     1      -5.938   3.374   2.163  0.00  0.00    +0.119 C 
BRANCH  19  20
ATOM     20  N   UNL     1      -4.872   2.329   2.146  0.00  0.00    -0.302 NA
ATOM     21  C   UNL     1      -4.728   1.677   0.768  0.00  0.00    +0.066 C 
ATOM     22  C   UNL     1      -3.593   0.601   0.762  0.00  0.00    -0.064 C 
ATOM     23  N   UNL     1      -3.888  -0.452   1.831  0.00  0.00    +0.379 N 
ATOM     24  C   UNL     1      -2.854  -1.496   1.790  0.00  0.00    -0.096 C 
ATOM     25  H   UNL     1      -4.862  -0.930   1.575  0.00  0.00    -0.082 HD
ATOM     26  C   UNL     1      -4.036   0.187   3.205  0.00  0.00    -0.064 C 
ATOM     27  C   UNL     1      -5.145   1.275   3.192  0.00  0.00    +0.066 C 
ENDBRANCH  19  20
ENDBRANCH  18  19
ENDBRANCH  14  15
ENDBRANCH  12  13
TORSDOF 6
ENDMDL
MODEL 5
REMARK VINA RESULT:     -11.1      1.296      2.095
REMARK  Name = C:\Users\Docking\Desktop\test protocol\1iep_ligandH.pdb
REMARK  8 active torsions:
REMARK  status: ('A' for Active; 'I' for Inactive)
REMARK    1  A    between atoms: _5  and  _11
REMARK    2  A    between atoms: _19  and  _21
REMARK    3  A    between atoms: _22  and  _66
REMARK    4  A    between atoms: _27  and  _30
REMARK    5  A    between atoms: _32  and  _33
REMARK    6  A    between atoms: _38  and  _43
REMARK    7  A    between atoms: _43  and  _46
REMARK    8  A    between atoms: _53  and  _55
REMARK                            x       y       z     vdW  Elec       q    Type
REMARK                         _______ _______ _______ _____ _____    ______ ____
ROOT
ATOM     10  C   UNL     1     -14.809  -5.392  11.649  0.00  0.00    +0.038 A 
ATOM     11  C   UNL     1     -15.006  -4.256  10.823  0.00  0.00    +0.047 A 
ATOM     12  C   UNL     1     -15.381  -4.397   9.425  0.00  0.00    +0.035 A 
ATOM     32  C   UNL     1     -15.548  -5.712   8.900  0.00  0.00    +0.024 A 
ATOM     33  C   UNL     1     -15.351  -6.878   9.724  0.00  0.00    +0.007 A 
ATOM     34  C   UNL     1     -14.979  -6.745  11.104  0.00  0.00    -0.029 A 
ATOM     35  C   UNL     1     -14.774  -8.030  11.939  0.00  0.00    +0.045 C 
ENDROOT
BRANCH  10   9
ATOM      4  C   UNL     1     -11.607  -5.455  15.224  0.00  0.00    +0.077 A 
ATOM      5  C   UNL     1     -10.568  -5.941  14.363  0.00  0.00    +0.048 A 
ATOM      6  C   UNL     1     -10.900  -6.168  13.009  0.00  0.00    +0.116 A 
ATOM      7  N   UNL     1     -12.179  -5.924  12.560  0.00  0.00    -0.223 NA
ATOM      8  C   UNL     1     -13.159  -5.458  13.416  0.00  0.00    +0.220 A 
ATOM      9  N   UNL     1     -14.451  -5.198  12.984  0.00  0.00    -0.283 N 
ATOM     36  H   UNL     1     -15.147  -4.862  13.649  0.00  0.00    +0.155 HD
ATOM     37  N   UNL     1     -12.868  -5.234  14.715  0.00  0.00    -0.214 NA
BRANCH   4   3
ATOM      1  C   UNL     1     -10.268  -3.971  18.586  0.00  0.00    +0.020 A 
ATOM      2  C   UNL     1     -10.417  -4.217  17.170  0.00  0.00    +0.013 A 
ATOM      3  C   UNL     1     -11.411  -5.163  16.679  0.00  0.00    +0.019 A 
ATOM     38  C   UNL     1     -12.246  -5.847  17.654  0.00  0.00    +0.120 A 
ATOM     39  N   UNL     1     -12.080  -5.591  19.012  0.00  0.00    -0.263 NA
ATOM     40  C   UNL     1     -11.125  -4.685  19.496  0.00  0.00    +0.111 A 
ENDBRANCH   4   3
ENDBRANCH  10   9
BRANCH  12  13
ATOM     13  N   UNL     1     -15.586  -3.280   8.536  0.00  0.00    -0.281 N 
ATOM     14  C   UNL     1     -16.767  -2.878   7.933  0.00  0.00    +0.248 C 
ATOM     30  O   UNL     1     -17.788  -3.549   7.897  0.00  0.00    -0.270 OA
ATOM     31  H   UNL     1     -14.762  -2.717   8.327  0.00  0.00    +0.155 HD
BRANCH  14  15
ATOM     15  C   UNL     1     -16.816  -1.545   7.260  0.00  0.00    +0.037 A 
ATOM     16  C   UNL     1     -16.674  -1.421   5.807  0.00  0.00    +0.013 A 
ATOM     17  C   UNL     1     -16.708  -0.121   5.185  0.00  0.00    +0.005 A 
ATOM     18  C   UNL     1     -16.887   1.067   6.018  0.00  0.00    -0.033 A 
ATOM     28  C   UNL     1     -17.031   0.914   7.456  0.00  0.00    +0.005 A 
ATOM     29  C   UNL     1     -16.997  -0.358   8.069  0.00  0.00    +0.013 A 
BRANCH  18  19
ATOM     19  C   UNL     1     -16.915   2.495   5.442  0.00  0.00    +0.119 C 
BRANCH  19  20
ATOM     20  N   UNL     1     -15.649   3.016   4.844  0.00  0.00    -0.302 NA
ATOM     21  C   UNL     1     -15.445   2.521   3.410  0.00  0.00    +0.066 C 
ATOM     22  C   UNL     1     -14.128   3.093   2.792  0.00  0.00    -0.064 C 
ATOM     23  N   UNL     1     -12.941   2.701   3.675  0.00  0.00    +0.379 N 
ATOM     24  C   UNL     1     -11.695   3.189   3.066  0.00  0.00    -0.096 C 
ATOM     25  H   UNL     1     -12.893   1.588   3.700  0.00  0.00    -0.082 HD
ATOM     26  C   UNL     1     -13.138   3.187   5.104  0.00  0.00    -0.064 C 
ATOM     27  C   UNL     1     -14.464   2.636   5.698  0.00  0.00    +0.066 C 
ENDBRANCH  19  20
ENDBRANCH  18  19
ENDBRANCH  14  15
ENDBRANCH  12  13
TORSDOF 6
ENDMDL
