MODEL 1
REMARK VINA RESULT:      -8.2      0.000      0.000
REMARK  Name = C:\Users\Docking\Desktop\test protocol\1iep_ligandH.pdb
REMARK  8 active torsions:
REMARK  status: ('A' for Active; 'I' for Inactive)
REMARK    1  A    between atoms: _5  and  _11
REMARK    2  A    between atoms: _19  and  _21
REMARK    3  A    between atoms: _22  and  _66
REMARK    4  A    between atoms: _27  and  _30
REMARK    5  A    between atoms: _32  and  _33
REMARK    6  A    between atoms: _38  and  _43
REMARK    7  A    between atoms: _43  and  _46
REMARK    8  A    between atoms: _53  and  _55
REMARK                            x       y       z     vdW  Elec       q    Type
REMARK                         _______ _______ _______ _____ _____    ______ ____
ROOT
ATOM     10  C   UNL     1       3.579 -10.115 -28.888  0.00  0.00    +0.038 A 
ATOM     11  C   UNL     1       2.334  -9.795 -29.488  0.00  0.00    +0.047 A 
ATOM     12  C   UNL     1       2.106 -10.011 -30.909  0.00  0.00    +0.035 A 
ATOM     32  C   UNL     1       3.168 -10.557 -31.688  0.00  0.00    +0.024 A 
ATOM     33  C   UNL     1       4.439 -10.887 -31.094  0.00  0.00    +0.007 A 
ATOM     34  C   UNL     1       4.671 -10.674 -29.694  0.00  0.00    -0.029 A 
ATOM     35  C   UNL     1       6.056 -11.040 -29.112  0.00  0.00    +0.045 C 
ENDROOT
BRANCH  10   9
ATOM      4  C   UNL     1       3.793  -7.204 -25.077  0.00  0.00    +0.077 A 
ATOM      5  C   UNL     1       3.587  -6.036 -25.884  0.00  0.00    +0.048 A 
ATOM      6  C   UNL     1       3.437  -6.227 -27.276  0.00  0.00    +0.116 A 
ATOM      7  N   UNL     1       3.491  -7.496 -27.811  0.00  0.00    -0.223 NA
ATOM      8  C   UNL     1       3.693  -8.601 -27.005  0.00  0.00    +0.220 A 
ATOM      9  N   UNL     1       3.743  -9.887 -27.520  0.00  0.00    -0.283 N 
ATOM     36  H   UNL     1       3.901 -10.675 -26.893  0.00  0.00    +0.155 HD
ATOM     37  N   UNL     1       3.840  -8.445 -25.672  0.00  0.00    -0.214 NA
BRANCH   4   3
ATOM      1  C   UNL     1       3.083  -6.877 -21.245  0.00  0.00    +0.020 A 
ATOM      2  C   UNL     1       2.863  -6.902 -22.673  0.00  0.00    +0.013 A 
ATOM      3  C   UNL     1       3.964  -7.166 -23.591  0.00  0.00    +0.019 A 
ATOM     38  C   UNL     1       5.285  -7.404 -23.027  0.00  0.00    +0.120 A 
ATOM     39  N   UNL     1       5.466  -7.372 -21.648  0.00  0.00    -0.263 NA
ATOM     40  C   UNL     1       4.414  -7.117 -20.755  0.00  0.00    +0.111 A 
ENDBRANCH   4   3
ENDBRANCH  10   9
BRANCH  12  13
ATOM     13  N   UNL     1       0.867  -9.697 -31.575  0.00  0.00    -0.281 N 
ATOM     14  C   UNL     1      -0.230 -10.522 -31.765  0.00  0.00    +0.248 C 
ATOM     30  O   UNL     1      -0.228 -11.730 -31.577  0.00  0.00    -0.270 OA
ATOM     31  H   UNL     1       0.788  -8.753 -31.952  0.00  0.00    +0.155 HD
BRANCH  14  15
ATOM     15  C   UNL     1      -1.510  -9.921 -32.249  0.00  0.00    +0.037 A 
ATOM     16  C   UNL     1      -1.810  -9.822 -33.679  0.00  0.00    +0.013 A 
ATOM     17  C   UNL     1      -3.045  -9.222 -34.119  0.00  0.00    +0.005 A 
ATOM     18  C   UNL     1      -3.990  -8.718 -33.126  0.00  0.00    -0.033 A 
ATOM     28  C   UNL     1      -3.670  -8.834 -31.713  0.00  0.00    +0.005 A 
ATOM     29  C   UNL     1      -2.460  -9.421 -31.278  0.00  0.00    +0.013 A 
BRANCH  18  19
ATOM     19  C   UNL     1      -5.322  -8.044 -33.505  0.00  0.00    +0.119 C 
BRANCH  19  20
ATOM     20  N   UNL     1      -6.046  -7.305 -32.428  0.00  0.00    -0.302 NA
ATOM     21  C   UNL     1      -7.532  -7.670 -32.378  0.00  0.00    +0.066 C 
ATOM     22  C   UNL     1      -8.268  -6.904 -31.231  0.00  0.00    -0.064 C 
ATOM     23  N   UNL     1      -8.087  -5.398 -31.429  0.00  0.00    +0.379 N 
ATOM     24  C   UNL     1      -8.827  -4.674 -30.385  0.00  0.00    -0.096 C 
ATOM     25  H   UNL     1      -8.539  -5.129 -32.412  0.00  0.00    -0.082 HD
ATOM     26  C   UNL     1      -6.612  -5.027 -31.482  0.00  0.00    -0.064 C 
ATOM     27  C   UNL     1      -5.883  -5.815 -32.605  0.00  0.00    +0.066 C 
ENDBRANCH  19  20
ENDBRANCH  18  19
ENDBRANCH  14  15
ENDBRANCH  12  13
TORSDOF 6
ENDMDL
MODEL 2
REMARK VINA RESULT:      -8.2      2.487     11.844
REMARK  Name = C:\Users\Docking\Desktop\test protocol\1iep_ligandH.pdb
REMARK  8 active torsions:
REMARK  status: ('A' for Active; 'I' for Inactive)
REMARK    1  A    between atoms: _5  and  _11
REMARK    2  A    between atoms: _19  and  _21
REMARK    3  A    between atoms: _22  and  _66
REMARK    4  A    between atoms: _27  and  _30
REMARK    5  A    between atoms: _32  and  _33
REMARK    6  A    between atoms: _38  and  _43
REMARK    7  A    between atoms: _43  and  _46
REMARK    8  A    between atoms: _53  and  _55
REMARK                            x       y       z     vdW  Elec       q    Type
REMARK                         _______ _______ _______ _____ _____    ______ ____
ROOT
ATOM     10  C   UNL     1       1.411  -9.991 -29.456  0.00  0.00    +0.038 A 
ATOM     11  C   UNL     1       2.000  -9.432 -28.293  0.00  0.00    +0.047 A 
ATOM     12  C   UNL     1       3.380  -9.722 -27.936  0.00  0.00    +0.035 A 
ATOM     32  C   UNL     1       4.132 -10.583 -28.788  0.00  0.00    +0.024 A 
ATOM     33  C   UNL     1       3.548 -11.160 -29.973  0.00  0.00    +0.007 A 
ATOM     34  C   UNL     1       2.187 -10.880 -30.329  0.00  0.00    -0.029 A 
ATOM     35  C   UNL     1       1.611 -11.532 -31.607  0.00  0.00    +0.045 C 
ENDROOT
BRANCH  10   9
ATOM      4  C   UNL     1      -1.922  -7.414 -31.757  0.00  0.00    +0.077 A 
ATOM      5  C   UNL     1      -0.932  -6.603 -32.405  0.00  0.00    +0.048 A 
ATOM      6  C   UNL     1       0.423  -6.876 -32.114  0.00  0.00    +0.116 A 
ATOM      7  N   UNL     1       0.753  -7.889 -31.238  0.00  0.00    -0.223 NA
ATOM      8  C   UNL     1      -0.227  -8.651 -30.629  0.00  0.00    +0.220 A 
ATOM      9  N   UNL     1       0.082  -9.679 -29.751  0.00  0.00    -0.283 N 
ATOM     36  H   UNL     1      -0.670 -10.213 -29.316  0.00  0.00    +0.155 HD
ATOM     37  N   UNL     1      -1.528  -8.409 -30.889  0.00  0.00    -0.214 NA
BRANCH   4   3
ATOM      1  C   UNL     1      -5.718  -8.164 -32.332  0.00  0.00    +0.020 A 
ATOM      2  C   UNL     1      -4.302  -8.377 -32.135  0.00  0.00    +0.013 A 
ATOM      3  C   UNL     1      -3.395  -7.249 -31.964  0.00  0.00    +0.019 A 
ATOM     38  C   UNL     1      -3.957  -5.907 -31.998  0.00  0.00    +0.120 A 
ATOM     39  N   UNL     1      -5.324  -5.732 -32.191  0.00  0.00    -0.263 NA
ATOM     40  C   UNL     1      -6.206  -6.810 -32.358  0.00  0.00    +0.111 A 
ENDBRANCH   4   3
ENDBRANCH  10   9
BRANCH  12  13
ATOM     13  N   UNL     1       4.030  -9.190 -26.764  0.00  0.00    -0.281 N 
ATOM     14  C   UNL     1       3.806  -7.971 -26.145  0.00  0.00    +0.248 C 
ATOM     30  O   UNL     1       3.159  -7.056 -26.634  0.00  0.00    -0.270 OA
ATOM     31  H   UNL     1       4.742  -9.784 -26.339  0.00  0.00    +0.155 HD
BRANCH  14  15
ATOM     15  C   UNL     1       4.398  -7.727 -24.795  0.00  0.00    +0.037 A 
ATOM     16  C   UNL     1       3.752  -6.831 -23.832  0.00  0.00    +0.013 A 
ATOM     17  C   UNL     1       4.354  -6.600 -22.543  0.00  0.00    +0.005 A 
ATOM     18  C   UNL     1       5.609  -7.268 -22.208  0.00  0.00    -0.033 A 
ATOM     28  C   UNL     1       6.226  -8.156 -23.180  0.00  0.00    +0.005 A 
ATOM     29  C   UNL     1       5.640  -8.384 -24.445  0.00  0.00    +0.013 A 
BRANCH  18  19
ATOM     19  C   UNL     1       6.333  -7.064 -20.864  0.00  0.00    +0.119 C 
BRANCH  19  20
ATOM     20  N   UNL     1       5.513  -6.584 -19.712  0.00  0.00    -0.302 NA
ATOM     21  C   UNL     1       6.327  -6.515 -18.417  0.00  0.00    +0.066 C 
ATOM     22  C   UNL     1       5.459  -5.990 -17.226  0.00  0.00    -0.064 C 
ATOM     23  N   UNL     1       4.239  -6.895 -17.051  0.00  0.00    +0.379 N 
ATOM     24  C   UNL     1       3.452  -6.438 -15.896  0.00  0.00    -0.096 C 
ATOM     25  H   UNL     1       4.609  -7.921 -16.823  0.00  0.00    -0.082 HD
ATOM     26  C   UNL     1       3.425  -6.972 -18.335  0.00  0.00    -0.064 C 
ATOM     27  C   UNL     1       4.304  -7.467 -19.517  0.00  0.00    +0.066 C 
ENDBRANCH  19  20
ENDBRANCH  18  19
ENDBRANCH  14  15
ENDBRANCH  12  13
TORSDOF 6
ENDMDL
MODEL 3
REMARK VINA RESULT:      -8.2      6.968     13.829
REMARK  Name = C:\Users\Docking\Desktop\test protocol\1iep_ligandH.pdb
REMARK  8 active torsions:
REMARK  status: ('A' for Active; 'I' for Inactive)
REMARK    1  A    between atoms: _5  and  _11
REMARK    2  A    between atoms: _19  and  _21
REMARK    3  A    between atoms: _22  and  _66
REMARK    4  A    between atoms: _27  and  _30
REMARK    5  A    between atoms: _32  and  _33
REMARK    6  A    between atoms: _38  and  _43
REMARK    7  A    between atoms: _43  and  _46
REMARK    8  A    between atoms: _53  and  _55
REMARK                            x       y       z     vdW  Elec       q    Type
REMARK                         _______ _______ _______ _____ _____    ______ ____
ROOT
ATOM     10  C   UNL     1      -2.699  -0.207 -27.174  0.00  0.00    +0.038 A 
ATOM     11  C   UNL     1      -1.926  -1.013 -26.299  0.00  0.00    +0.047 A 
ATOM     12  C   UNL     1      -0.740  -1.712 -26.771  0.00  0.00    +0.035 A 
ATOM     32  C   UNL     1      -0.369  -1.565 -28.139  0.00  0.00    +0.024 A 
ATOM     33  C   UNL     1      -1.144  -0.750 -29.042  0.00  0.00    +0.007 A 
ATOM     34  C   UNL     1      -2.316  -0.061 -28.583  0.00  0.00    -0.029 A 
ATOM     35  C   UNL     1      -3.112   0.793 -29.597  0.00  0.00    +0.045 C 
ENDROOT
BRANCH  10   9
ATOM      4  C   UNL     1      -7.324  -0.143 -25.894  0.00  0.00    +0.077 A 
ATOM      5  C   UNL     1      -7.514  -1.508 -26.292  0.00  0.00    +0.048 A 
ATOM      6  C   UNL     1      -6.399  -2.189 -26.828  0.00  0.00    +0.116 A 
ATOM      7  N   UNL     1      -5.187  -1.544 -26.951  0.00  0.00    -0.223 NA
ATOM      8  C   UNL     1      -5.038  -0.226 -26.560  0.00  0.00    +0.220 A 
ATOM      9  N   UNL     1      -3.828   0.441 -26.668  0.00  0.00    -0.283 N 
ATOM     36  H   UNL     1      -3.761   1.415 -26.374  0.00  0.00    +0.155 HD
ATOM     37  N   UNL     1      -6.089   0.447 -26.046  0.00  0.00    -0.214 NA
BRANCH   4   3
ATOM      1  C   UNL     1     -10.705   1.039 -24.321  0.00  0.00    +0.020 A 
ATOM      2  C   UNL     1      -9.694   0.173 -24.882  0.00  0.00    +0.013 A 
ATOM      3  C   UNL     1      -8.407   0.709 -25.307  0.00  0.00    +0.019 A 
ATOM     38  C   UNL     1      -8.172   2.136 -25.148  0.00  0.00    +0.120 A 
ATOM     39  N   UNL     1      -9.166   2.946 -24.606  0.00  0.00    -0.263 NA
ATOM     40  C   UNL     1     -10.409   2.442 -24.195  0.00  0.00    +0.111 A 
ENDBRANCH   4   3
ENDBRANCH  10   9
BRANCH  12  13
ATOM     13  N   UNL     1       0.079  -2.550 -25.932  0.00  0.00    -0.281 N 
ATOM     14  C   UNL     1      -0.230  -3.070 -24.685  0.00  0.00    +0.248 C 
ATOM     30  O   UNL     1      -1.182  -2.715 -24.006  0.00  0.00    -0.270 OA
ATOM     31  H   UNL     1       0.999  -2.790 -26.301  0.00  0.00    +0.155 HD
BRANCH  14  15
ATOM     15  C   UNL     1       0.653  -4.126 -24.104  0.00  0.00    +0.037 A 
ATOM     16  C   UNL     1       0.537  -4.524 -22.699  0.00  0.00    +0.013 A 
ATOM     17  C   UNL     1       1.413  -5.534 -22.159  0.00  0.00    +0.005 A 
ATOM     18  C   UNL     1       2.411  -6.155 -23.026  0.00  0.00    -0.033 A 
ATOM     28  C   UNL     1       2.501  -5.745 -24.418  0.00  0.00    +0.005 A 
ATOM     29  C   UNL     1       1.645  -4.754 -24.950  0.00  0.00    +0.013 A 
BRANCH  18  19
ATOM     19  C   UNL     1       3.401  -7.225 -22.530  0.00  0.00    +0.119 C 
BRANCH  19  20
ATOM     20  N   UNL     1       4.221  -6.893 -21.327  0.00  0.00    -0.302 NA
ATOM     21  C   UNL     1       5.674  -7.353 -21.477  0.00  0.00    +0.066 C 
ATOM     22  C   UNL     1       6.523  -6.977 -20.219  0.00  0.00    -0.064 C 
ATOM     23  N   UNL     1       5.885  -7.595 -18.974  0.00  0.00    +0.379 N 
ATOM     24  C   UNL     1       6.713  -7.292 -17.797  0.00  0.00    -0.096 C 
ATOM     25  H   UNL     1       5.882  -8.702 -19.109  0.00  0.00    -0.082 HD
ATOM     26  C   UNL     1       4.439  -7.145 -18.818  0.00  0.00    -0.064 C 
ATOM     27  C   UNL     1       3.612  -7.497 -20.086  0.00  0.00    +0.066 C 
ENDBRANCH  19  20
ENDBRANCH  18  19
ENDBRANCH  14  15
ENDBRANCH  12  13
TORSDOF 6
ENDMDL
MODEL 4
REMARK VINA RESULT:      -8.1     27.959     33.746
REMARK  Name = C:\Users\Docking\Desktop\test protocol\1iep_ligandH.pdb
REMARK  8 active torsions:
REMARK  status: ('A' for Active; 'I' for Inactive)
REMARK    1  A    between atoms: _5  and  _11
REMARK    2  A    between atoms: _19  and  _21
REMARK    3  A    between atoms: _22  and  _66
REMARK    4  A    between atoms: _27  and  _30
REMARK    5  A    between atoms: _32  and  _33
REMARK    6  A    between atoms: _38  and  _43
REMARK    7  A    between atoms: _43  and  _46
REMARK    8  A    between atoms: _53  and  _55
REMARK                            x       y       z     vdW  Elec       q    Type
REMARK                         _______ _______ _______ _____ _____    ______ ____
ROOT
ATOM     10  C   UNL     1       2.846  11.526   0.408  0.00  0.00    +0.038 A 
ATOM     11  C   UNL     1       2.112  10.353   0.096  0.00  0.00    +0.047 A 
ATOM     12  C   UNL     1       2.272   9.135   0.875  0.00  0.00    +0.035 A 
ATOM     32  C   UNL     1       3.187   9.148   1.968  0.00  0.00    +0.024 A 
ATOM     33  C   UNL     1       3.942  10.331   2.299  0.00  0.00    +0.007 A 
ATOM     34  C   UNL     1       3.790  11.535   1.532  0.00  0.00    -0.029 A 
ATOM     35  C   UNL     1       4.629  12.771   1.928  0.00  0.00    +0.045 C 
ENDROOT
BRANCH  10   9
ATOM      4  C   UNL     1       4.104  14.470  -3.167  0.00  0.00    +0.077 A 
ATOM      5  C   UNL     1       5.260  13.683  -3.488  0.00  0.00    +0.048 A 
ATOM      6  C   UNL     1       5.498  12.531  -2.704  0.00  0.00    +0.116 A 
ATOM      7  N   UNL     1       4.639  12.202  -1.679  0.00  0.00    -0.223 NA
ATOM      8  C   UNL     1       3.534  12.984  -1.395  0.00  0.00    +0.220 A 
ATOM      9  N   UNL     1       2.652  12.667  -0.373  0.00  0.00    -0.283 N 
ATOM     36  H   UNL     1       1.853  13.274  -0.191  0.00  0.00    +0.155 HD
ATOM     37  N   UNL     1       3.286  14.089  -2.128  0.00  0.00    -0.214 NA
BRANCH   4   3
ATOM      1  C   UNL     1       2.051  17.157  -5.133  0.00  0.00    +0.020 A 
ATOM      2  C   UNL     1       2.374  15.939  -4.427  0.00  0.00    +0.013 A 
ATOM      3  C   UNL     1       3.716  15.713  -3.906  0.00  0.00    +0.019 A 
ATOM     38  C   UNL     1       4.717  16.749  -4.118  0.00  0.00    +0.120 A 
ATOM     39  N   UNL     1       4.377  17.911  -4.803  0.00  0.00    -0.263 NA
ATOM     40  C   UNL     1       3.089  18.139  -5.310  0.00  0.00    +0.111 A 
ENDBRANCH   4   3
ENDBRANCH  10   9
BRANCH  12  13
ATOM     13  N   UNL     1       1.560   7.912   0.600  0.00  0.00    -0.281 N 
ATOM     14  C   UNL     1       0.971   7.518  -0.590  0.00  0.00    +0.248 C 
ATOM     30  O   UNL     1       0.782   8.257  -1.545  0.00  0.00    -0.270 OA
ATOM     31  H   UNL     1       1.481   7.256   1.378  0.00  0.00    +0.155 HD
BRANCH  14  15
ATOM     15  C   UNL     1       0.513   6.103  -0.736  0.00  0.00    +0.037 A 
ATOM     16  C   UNL     1      -0.389   5.704  -1.819  0.00  0.00    +0.013 A 
ATOM     17  C   UNL     1      -0.829   4.336  -1.927  0.00  0.00    +0.005 A 
ATOM     18  C   UNL     1      -0.365   3.355  -0.948  0.00  0.00    -0.033 A 
ATOM     28  C   UNL     1       0.534   3.777   0.113  0.00  0.00    +0.005 A 
ATOM     29  C   UNL     1       0.966   5.118   0.222  0.00  0.00    +0.013 A 
BRANCH  18  19
ATOM     19  C   UNL     1      -0.800   1.878  -0.974  0.00  0.00    +0.119 C 
BRANCH  19  20
ATOM     20  N   UNL     1       0.188   0.883  -1.487  0.00  0.00    -0.302 NA
ATOM     21  C   UNL     1      -0.367   0.077  -2.665  0.00  0.00    +0.066 C 
ATOM     22  C   UNL     1       0.688  -0.943  -3.204  0.00  0.00    -0.064 C 
ATOM     23  N   UNL     1       1.121  -1.872  -2.068  0.00  0.00    +0.379 N 
ATOM     24  C   UNL     1       2.069  -2.870  -2.585  0.00  0.00    -0.096 C 
ATOM     25  H   UNL     1       0.215  -2.418  -1.714  0.00  0.00    -0.082 HD
ATOM     26  C   UNL     1       1.671  -1.079  -0.892  0.00  0.00    -0.064 C 
ATOM     27  C   UNL     1       0.626  -0.048  -0.383  0.00  0.00    +0.066 C 
ENDBRANCH  19  20
ENDBRANCH  18  19
ENDBRANCH  14  15
ENDBRANCH  12  13
TORSDOF 6
ENDMDL
MODEL 5
REMARK VINA RESULT:      -8.0     23.572     27.639
REMARK  Name = C:\Users\Docking\Desktop\test protocol\1iep_ligandH.pdb
REMARK  8 active torsions:
REMARK  status: ('A' for Active; 'I' for Inactive)
REMARK    1  A    between atoms: _5  and  _11
REMARK    2  A    between atoms: _19  and  _21
REMARK    3  A    between atoms: _22  and  _66
REMARK    4  A    between atoms: _27  and  _30
REMARK    5  A    between atoms: _32  and  _33
REMARK    6  A    between atoms: _38  and  _43
REMARK    7  A    between atoms: _43  and  _46
REMARK    8  A    between atoms: _53  and  _55
REMARK                            x       y       z     vdW  Elec       q    Type
REMARK                         _______ _______ _______ _____ _____    ______ ____
ROOT
ATOM     10  C   UNL     1      -5.736  10.886 -19.157  0.00  0.00    +0.038 A 
ATOM     11  C   UNL     1      -5.122  12.165 -19.178  0.00  0.00    +0.047 A 
ATOM     12  C   UNL     1      -3.753  12.334 -19.639  0.00  0.00    +0.035 A 
ATOM     32  C   UNL     1      -3.038  11.180 -20.074  0.00  0.00    +0.024 A 
ATOM     33  C   UNL     1      -3.647   9.873 -20.058  0.00  0.00    +0.007 A 
ATOM     34  C   UNL     1      -4.997   9.699 -19.602  0.00  0.00    -0.029 A 
ATOM     35  C   UNL     1      -5.596   8.274 -19.601  0.00  0.00    +0.045 C 
ENDROOT
BRANCH  10   9
ATOM      4  C   UNL     1     -10.421  11.871 -19.503  0.00  0.00    +0.077 A 
ATOM      5  C   UNL     1     -10.224  12.685 -20.668  0.00  0.00    +0.048 A 
ATOM      6  C   UNL     1      -8.901  12.831 -21.142  0.00  0.00    +0.116 A 
ATOM      7  N   UNL     1      -7.860  12.204 -20.492  0.00  0.00    -0.223 NA
ATOM      8  C   UNL     1      -8.084  11.427 -19.370  0.00  0.00    +0.220 A 
ATOM      9  N   UNL     1      -7.053  10.781 -18.705  0.00  0.00    -0.283 N 
ATOM     36  H   UNL     1      -7.259  10.223 -17.877  0.00  0.00    +0.155 HD
ATOM     37  N   UNL     1      -9.338  11.274 -18.897  0.00  0.00    -0.214 NA
BRANCH   4   3
ATOM      1  C   UNL     1     -13.761  12.322 -17.518  0.00  0.00    +0.020 A 
ATOM      2  C   UNL     1     -12.469  12.617 -18.093  0.00  0.00    +0.013 A 
ATOM      3  C   UNL     1     -11.761  11.618 -18.884  0.00  0.00    +0.019 A 
ATOM     38  C   UNL     1     -12.393  10.322 -19.076  0.00  0.00    +0.120 A 
ATOM     39  N   UNL     1     -13.637  10.066 -18.508  0.00  0.00    -0.263 NA
ATOM     40  C   UNL     1     -14.327  11.019 -17.744  0.00  0.00    +0.111 A 
ENDBRANCH   4   3
ENDBRANCH  10   9
BRANCH  12  13
ATOM     13  N   UNL     1      -3.074  13.606 -19.675  0.00  0.00    -0.281 N 
ATOM     14  C   UNL     1      -3.239  14.634 -20.589  0.00  0.00    +0.248 C 
ATOM     30  O   UNL     1      -3.845  14.529 -21.644  0.00  0.00    -0.270 OA
ATOM     31  H   UNL     1      -2.388  13.768 -18.937  0.00  0.00    +0.155 HD
BRANCH  14  15
ATOM     15  C   UNL     1      -2.630  15.967 -20.294  0.00  0.00    +0.037 A 
ATOM     16  C   UNL     1      -1.404  16.083 -19.500  0.00  0.00    +0.013 A 
ATOM     17  C   UNL     1      -0.848  17.382 -19.216  0.00  0.00    +0.005 A 
ATOM     18  C   UNL     1      -1.516  18.576 -19.729  0.00  0.00    -0.033 A 
ATOM     28  C   UNL     1      -2.728  18.431 -20.518  0.00  0.00    +0.005 A 
ATOM     29  C   UNL     1      -3.277  17.159 -20.798  0.00  0.00    +0.013 A 
BRANCH  18  19
ATOM     19  C   UNL     1      -1.005  20.003 -19.457  0.00  0.00    +0.119 C 
BRANCH  19  20
ATOM     20  N   UNL     1      -1.764  20.825 -18.468  0.00  0.00    -0.302 NA
ATOM     21  C   UNL     1      -1.922  22.277 -18.928  0.00  0.00    +0.066 C 
ATOM     22  C   UNL     1      -2.738  23.116 -17.892  0.00  0.00    -0.064 C 
ATOM     23  N   UNL     1      -2.045  23.052 -16.529  0.00  0.00    +0.379 N 
ATOM     24  C   UNL     1      -2.778  23.888 -15.567  0.00  0.00    -0.096 C 
ATOM     25  H   UNL     1      -1.026  23.487 -16.647  0.00  0.00    -0.082 HD
ATOM     26  C   UNL     1      -1.882  21.611 -16.066  0.00  0.00    -0.064 C 
ATOM     27  C   UNL     1      -1.096  20.779 -17.116  0.00  0.00    +0.066 C 
ENDBRANCH  19  20
ENDBRANCH  18  19
ENDBRANCH  14  15
ENDBRANCH  12  13
TORSDOF 6
ENDMDL
