MODEL 1
REMARK VINA RESULT:     -10.0      0.000      0.000
REMARK  Name = C:\Users\Docking\Desktop\test protocol\1iep_ligandH.pdb
REMARK  8 active torsions:
REMARK  status: ('A' for Active; 'I' for Inactive)
REMARK    1  A    between atoms: _5  and  _11
REMARK    2  A    between atoms: _19  and  _21
REMARK    3  A    between atoms: _22  and  _66
REMARK    4  A    between atoms: _27  and  _30
REMARK    5  A    between atoms: _32  and  _33
REMARK    6  A    between atoms: _38  and  _43
REMARK    7  A    between atoms: _43  and  _46
REMARK    8  A    between atoms: _53  and  _55
REMARK                            x       y       z     vdW  Elec       q    Type
REMARK                         _______ _______ _______ _____ _____    ______ ____
ROOT
ATOM     10  C   UNL     1      36.507  45.816 245.453  0.00  0.00    +0.038 A 
ATOM     11  C   UNL     1      37.922  45.762 245.365  0.00  0.00    +0.047 A 
ATOM     12  C   UNL     1      38.608  44.523 245.036  0.00  0.00    +0.035 A 
ATOM     32  C   UNL     1      37.822  43.357 244.801  0.00  0.00    +0.024 A 
ATOM     33  C   UNL     1      36.383  43.394 244.888  0.00  0.00    +0.007 A 
ATOM     34  C   UNL     1      35.701  44.613 245.214  0.00  0.00    -0.029 A 
ATOM     35  C   UNL     1      34.157  44.593 245.300  0.00  0.00    +0.045 C 
ENDROOT
BRANCH  10   9
ATOM      4  C   UNL     1      34.445  49.970 244.216  0.00  0.00    +0.077 A 
ATOM      5  C   UNL     1      34.616  49.706 242.816  0.00  0.00    +0.048 A 
ATOM      6  C   UNL     1      35.245  48.493 242.457  0.00  0.00    +0.116 A 
ATOM      7  N   UNL     1      35.668  47.617 243.433  0.00  0.00    -0.223 NA
ATOM      8  C   UNL     1      35.490  47.903 244.774  0.00  0.00    +0.220 A 
ATOM      9  N   UNL     1      35.900  47.033 245.772  0.00  0.00    -0.283 N 
ATOM     36  H   UNL     1      35.757  47.284 246.750  0.00  0.00    +0.155 HD
ATOM     37  N   UNL     1      34.893  49.056 245.143  0.00  0.00    -0.214 NA
BRANCH   4   3
ATOM      1  C   UNL     1      32.897  53.551 244.502  0.00  0.00    +0.020 A 
ATOM      2  C   UNL     1      33.528  52.382 243.934  0.00  0.00    +0.013 A 
ATOM      3  C   UNL     1      33.795  51.207 244.754  0.00  0.00    +0.019 A 
ATOM     38  C   UNL     1      33.409  51.248 246.156  0.00  0.00    +0.120 A 
ATOM     39  N   UNL     1      32.805  52.388 246.676  0.00  0.00    -0.263 NA
ATOM     40  C   UNL     1      32.543  53.525 245.897  0.00  0.00    +0.111 A 
ENDBRANCH   4   3
ENDBRANCH  10   9
BRANCH  12  13
ATOM     13  N   UNL     1      40.042  44.405 244.940  0.00  0.00    -0.281 N 
ATOM     14  C   UNL     1      40.960  44.311 245.974  0.00  0.00    +0.248 C 
ATOM     30  O   UNL     1      40.703  44.530 247.148  0.00  0.00    -0.270 OA
ATOM     31  H   UNL     1      40.427  44.389 243.996  0.00  0.00    +0.155 HD
BRANCH  14  15
ATOM     15  C   UNL     1      42.370  43.934 245.654  0.00  0.00    +0.037 A 
ATOM     16  C   UNL     1      42.762  42.532 245.482  0.00  0.00    +0.013 A 
ATOM     17  C   UNL     1      44.133  42.195 245.191  0.00  0.00    +0.005 A 
ATOM     18  C   UNL     1      45.123  43.262 245.070  0.00  0.00    -0.033 A 
ATOM     28  C   UNL     1      44.706  44.644 245.240  0.00  0.00    +0.005 A 
ATOM     29  C   UNL     1      43.364  44.979 245.527  0.00  0.00    +0.013 A 
BRANCH  18  19
ATOM     19  C   UNL     1      46.612  42.993 244.782  0.00  0.00    +0.119 C 
BRANCH  19  20
ATOM     20  N   UNL     1      47.350  44.017 243.985  0.00  0.00    -0.302 NA
ATOM     21  C   UNL     1      48.381  43.382 243.048  0.00  0.00    +0.066 C 
ATOM     22  C   UNL     1      49.129  44.466 242.205  0.00  0.00    -0.064 C 
ATOM     23  N   UNL     1      49.798  45.468 243.147  0.00  0.00    +0.379 N 
ATOM     24  C   UNL     1      50.550  46.456 242.359  0.00  0.00    -0.096 C 
ATOM     25  H   UNL     1      50.530  44.907 243.773  0.00  0.00    -0.082 HD
ATOM     26  C   UNL     1      48.780  46.103 244.084  0.00  0.00    -0.064 C 
ATOM     27  C   UNL     1      48.022  45.015 244.895  0.00  0.00    +0.066 C 
ENDBRANCH  19  20
ENDBRANCH  18  19
ENDBRANCH  14  15
ENDBRANCH  12  13
TORSDOF 6
ENDMDL
MODEL 2
REMARK VINA RESULT:      -9.9      1.840      2.192
REMARK  Name = C:\Users\Docking\Desktop\test protocol\1iep_ligandH.pdb
REMARK  8 active torsions:
REMARK  status: ('A' for Active; 'I' for Inactive)
REMARK    1  A    between atoms: _5  and  _11
REMARK    2  A    between atoms: _19  and  _21
REMARK    3  A    between atoms: _22  and  _66
REMARK    4  A    between atoms: _27  and  _30
REMARK    5  A    between atoms: _32  and  _33
REMARK    6  A    between atoms: _38  and  _43
REMARK    7  A    between atoms: _43  and  _46
REMARK    8  A    between atoms: _53  and  _55
REMARK                            x       y       z     vdW  Elec       q    Type
REMARK                         _______ _______ _______ _____ _____    ______ ____
ROOT
ATOM     10  C   UNL     1      35.345  45.327 245.533  0.00  0.00    +0.038 A 
ATOM     11  C   UNL     1      36.734  45.044 245.488  0.00  0.00    +0.047 A 
ATOM     12  C   UNL     1      37.225  43.751 245.038  0.00  0.00    +0.035 A 
ATOM     32  C   UNL     1      36.272  42.769 244.637  0.00  0.00    +0.024 A 
ATOM     33  C   UNL     1      34.856  43.039 244.677  0.00  0.00    +0.007 A 
ATOM     34  C   UNL     1      34.367  44.312 245.123  0.00  0.00    -0.029 A 
ATOM     35  C   UNL     1      32.838  44.545 245.151  0.00  0.00    +0.045 C 
ENDROOT
BRANCH  10   9
ATOM      4  C   UNL     1      34.027  49.871 244.726  0.00  0.00    +0.077 A 
ATOM      5  C   UNL     1      34.207  49.734 243.310  0.00  0.00    +0.048 A 
ATOM      6  C   UNL     1      34.646  48.480 242.830  0.00  0.00    +0.116 A 
ATOM      7  N   UNL     1      34.885  47.447 243.710  0.00  0.00    -0.223 NA
ATOM      8  C   UNL     1      34.703  47.613 245.070  0.00  0.00    +0.220 A 
ATOM      9  N   UNL     1      34.930  46.586 245.973  0.00  0.00    -0.283 N 
ATOM     36  H   UNL     1      34.791  46.750 246.970  0.00  0.00    +0.155 HD
ATOM     37  N   UNL     1      34.285  48.802 245.554  0.00  0.00    -0.214 NA
BRANCH   4   3
ATOM      1  C   UNL     1      32.830  53.546 245.330  0.00  0.00    +0.020 A 
ATOM      2  C   UNL     1      33.275  52.354 244.645  0.00  0.00    +0.013 A 
ATOM      3  C   UNL     1      33.564  51.133 245.386  0.00  0.00    +0.019 A 
ATOM     38  C   UNL     1      33.390  51.151 246.830  0.00  0.00    +0.120 A 
ATOM     39  N   UNL     1      32.962  52.314 247.463  0.00  0.00    -0.263 NA
ATOM     40  C   UNL     1      32.682  53.495 246.761  0.00  0.00    +0.111 A 
ENDBRANCH   4   3
ENDBRANCH  10   9
BRANCH  12  13
ATOM     13  N   UNL     1      38.623  43.404 244.979  0.00  0.00    -0.281 N 
ATOM     14  C   UNL     1      39.655  44.123 244.398  0.00  0.00    +0.248 C 
ATOM     30  O   UNL     1      39.498  45.077 243.651  0.00  0.00    -0.270 OA
ATOM     31  H   UNL     1      38.883  42.521 245.418  0.00  0.00    +0.155 HD
BRANCH  14  15
ATOM     15  C   UNL     1      41.066  43.714 244.677  0.00  0.00    +0.037 A 
ATOM     16  C   UNL     1      42.009  43.449 243.588  0.00  0.00    +0.013 A 
ATOM     17  C   UNL     1      43.359  43.040 243.884  0.00  0.00    +0.005 A 
ATOM     18  C   UNL     1      43.774  42.894 245.278  0.00  0.00    -0.033 A 
ATOM     28  C   UNL     1      42.819  43.168 246.338  0.00  0.00    +0.005 A 
ATOM     29  C   UNL     1      41.494  43.568 246.052  0.00  0.00    +0.013 A 
BRANCH  18  19
ATOM     19  C   UNL     1      45.188  42.441 245.686  0.00  0.00    +0.119 C 
BRANCH  19  20
ATOM     20  N   UNL     1      46.248  43.491 245.758  0.00  0.00    -0.302 NA
ATOM     21  C   UNL     1      46.703  43.751 247.196  0.00  0.00    +0.066 C 
ATOM     22  C   UNL     1      47.828  44.835 247.251  0.00  0.00    -0.064 C 
ATOM     23  N   UNL     1      47.321  46.124 246.601  0.00  0.00    +0.379 N 
ATOM     24  C   UNL     1      48.356  47.164 246.702  0.00  0.00    -0.096 C 
ATOM     25  H   UNL     1      46.436  46.471 247.183  0.00  0.00    -0.082 HD
ATOM     26  C   UNL     1      46.865  45.874 245.171  0.00  0.00    -0.064 C 
ATOM     27  C   UNL     1      45.768  44.774 245.125  0.00  0.00    +0.066 C 
ENDBRANCH  19  20
ENDBRANCH  18  19
ENDBRANCH  14  15
ENDBRANCH  12  13
TORSDOF 6
ENDMDL
MODEL 3
REMARK VINA RESULT:      -9.4      1.628     12.702
REMARK  Name = C:\Users\Docking\Desktop\test protocol\1iep_ligandH.pdb
REMARK  8 active torsions:
REMARK  status: ('A' for Active; 'I' for Inactive)
REMARK    1  A    between atoms: _5  and  _11
REMARK    2  A    between atoms: _19  and  _21
REMARK    3  A    between atoms: _22  and  _66
REMARK    4  A    between atoms: _27  and  _30
REMARK    5  A    between atoms: _32  and  _33
REMARK    6  A    between atoms: _38  and  _43
REMARK    7  A    between atoms: _43  and  _46
REMARK    8  A    between atoms: _53  and  _55
REMARK                            x       y       z     vdW  Elec       q    Type
REMARK                         _______ _______ _______ _____ _____    ______ ____
ROOT
ATOM     10  C   UNL     1      45.290  43.233 244.469  0.00  0.00    +0.038 A 
ATOM     11  C   UNL     1      43.993  43.764 244.250  0.00  0.00    +0.047 A 
ATOM     12  C   UNL     1      42.844  43.274 244.995  0.00  0.00    +0.035 A 
ATOM     32  C   UNL     1      43.052  42.245 245.959  0.00  0.00    +0.024 A 
ATOM     33  C   UNL     1      44.364  41.694 246.194  0.00  0.00    +0.007 A 
ATOM     34  C   UNL     1      45.500  42.171 245.460  0.00  0.00    -0.029 A 
ATOM     35  C   UNL     1      46.882  41.538 245.749  0.00  0.00    +0.045 C 
ENDROOT
BRANCH  10   9
ATOM      4  C   UNL     1      48.787  46.435 243.725  0.00  0.00    +0.077 A 
ATOM      5  C   UNL     1      48.441  47.176 244.904  0.00  0.00    +0.048 A 
ATOM      6  C   UNL     1      47.352  46.703 245.671  0.00  0.00    +0.116 A 
ATOM      7  N   UNL     1      46.668  45.573 245.278  0.00  0.00    -0.223 NA
ATOM      8  C   UNL     1      47.027  44.884 244.135  0.00  0.00    +0.220 A 
ATOM      9  N   UNL     1      46.358  43.740 243.725  0.00  0.00    -0.283 N 
ATOM     36  H   UNL     1      46.648  43.264 242.872  0.00  0.00    +0.155 HD
ATOM     37  N   UNL     1      48.062  45.315 243.385  0.00  0.00    -0.214 NA
BRANCH   4   3
ATOM      1  C   UNL     1      51.156  48.435 241.340  0.00  0.00    +0.020 A 
ATOM      2  C   UNL     1      50.047  48.128 242.213  0.00  0.00    +0.013 A 
ATOM      3  C   UNL     1      49.915  46.807 242.814  0.00  0.00    +0.019 A 
ATOM     38  C   UNL     1      50.932  45.811 242.509  0.00  0.00    +0.120 A 
ATOM     39  N   UNL     1      51.988  46.136 241.663  0.00  0.00    -0.263 NA
ATOM     40  C   UNL     1      52.124  47.403 241.078  0.00  0.00    +0.111 A 
ENDBRANCH   4   3
ENDBRANCH  10   9
BRANCH  12  13
ATOM     13  N   UNL     1      41.502  43.769 244.810  0.00  0.00    -0.281 N 
ATOM     14  C   UNL     1      40.846  44.746 245.541  0.00  0.00    +0.248 C 
ATOM     30  O   UNL     1      41.242  45.194 246.607  0.00  0.00    -0.270 OA
ATOM     31  H   UNL     1      40.972  43.348 244.047  0.00  0.00    +0.155 HD
BRANCH  14  15
ATOM     15  C   UNL     1      39.556  45.293 245.021  0.00  0.00    +0.037 A 
ATOM     16  C   UNL     1      39.333  45.476 243.584  0.00  0.00    +0.013 A 
ATOM     17  C   UNL     1      38.086  46.022 243.110  0.00  0.00    +0.005 A 
ATOM     18  C   UNL     1      37.052  46.388 244.074  0.00  0.00    -0.033 A 
ATOM     28  C   UNL     1      37.297  46.191 245.493  0.00  0.00    +0.005 A 
ATOM     29  C   UNL     1      38.519  45.657 245.962  0.00  0.00    +0.013 A 
BRANCH  18  19
ATOM     19  C   UNL     1      35.699  46.997 243.659  0.00  0.00    +0.119 C 
BRANCH  19  20
ATOM     20  N   UNL     1      35.311  48.294 244.289  0.00  0.00    -0.302 NA
ATOM     21  C   UNL     1      34.138  48.134 245.259  0.00  0.00    +0.066 C 
ATOM     22  C   UNL     1      33.760  49.496 245.926  0.00  0.00    -0.064 C 
ATOM     23  N   UNL     1      33.427  50.518 244.838  0.00  0.00    +0.379 N 
ATOM     24  C   UNL     1      33.015  51.784 245.463  0.00  0.00    -0.096 C 
ATOM     25  H   UNL     1      32.557  50.126 244.261  0.00  0.00    -0.082 HD
ATOM     26  C   UNL     1      34.587  50.682 243.867  0.00  0.00    -0.064 C 
ATOM     27  C   UNL     1      34.974  49.317 243.232  0.00  0.00    +0.066 C 
ENDBRANCH  19  20
ENDBRANCH  18  19
ENDBRANCH  14  15
ENDBRANCH  12  13
TORSDOF 6
ENDMDL
MODEL 4
REMARK VINA RESULT:      -9.0      1.724     12.721
REMARK  Name = C:\Users\Docking\Desktop\test protocol\1iep_ligandH.pdb
REMARK  8 active torsions:
REMARK  status: ('A' for Active; 'I' for Inactive)
REMARK    1  A    between atoms: _5  and  _11
REMARK    2  A    between atoms: _19  and  _21
REMARK    3  A    between atoms: _22  and  _66
REMARK    4  A    between atoms: _27  and  _30
REMARK    5  A    between atoms: _32  and  _33
REMARK    6  A    between atoms: _38  and  _43
REMARK    7  A    between atoms: _43  and  _46
REMARK    8  A    between atoms: _53  and  _55
REMARK                            x       y       z     vdW  Elec       q    Type
REMARK                         _______ _______ _______ _____ _____    ______ ____
ROOT
ATOM     10  C   UNL     1      45.581  43.757 245.379  0.00  0.00    +0.038 A 
ATOM     11  C   UNL     1      44.353  44.438 245.180  0.00  0.00    +0.047 A 
ATOM     12  C   UNL     1      43.080  43.795 245.467  0.00  0.00    +0.035 A 
ATOM     32  C   UNL     1      43.095  42.458 245.960  0.00  0.00    +0.024 A 
ATOM     33  C   UNL     1      44.334  41.750 246.167  0.00  0.00    +0.007 A 
ATOM     34  C   UNL     1      45.592  42.378 245.883  0.00  0.00    -0.029 A 
ATOM     35  C   UNL     1      46.889  41.569 246.118  0.00  0.00    +0.045 C 
ENDROOT
BRANCH  10   9
ATOM      4  C   UNL     1      48.721  45.652 242.283  0.00  0.00    +0.077 A 
ATOM      5  C   UNL     1      47.932  45.259 241.151  0.00  0.00    +0.048 A 
ATOM      6  C   UNL     1      46.729  44.565 241.408  0.00  0.00    +0.116 A 
ATOM      7  N   UNL     1      46.352  44.290 242.705  0.00  0.00    -0.223 NA
ATOM      8  C   UNL     1      47.137  44.682 243.774  0.00  0.00    +0.220 A 
ATOM      9  N   UNL     1      46.773  44.423 245.086  0.00  0.00    -0.283 N 
ATOM     36  H   UNL     1      47.383  44.722 245.847  0.00  0.00    +0.155 HD
ATOM     37  N   UNL     1      48.291  45.344 243.554  0.00  0.00    -0.214 NA
BRANCH   4   3
ATOM      1  C   UNL     1      51.365  48.500 241.840  0.00  0.00    +0.020 A 
ATOM      2  C   UNL     1      50.088  47.831 241.936  0.00  0.00    +0.013 A 
ATOM      3  C   UNL     1      50.016  46.395 242.174  0.00  0.00    +0.019 A 
ATOM     38  C   UNL     1      51.264  45.659 242.311  0.00  0.00    +0.120 A 
ATOM     39  N   UNL     1      52.479  46.330 242.211  0.00  0.00    -0.263 NA
ATOM     40  C   UNL     1      52.561  47.712 241.982  0.00  0.00    +0.111 A 
ENDBRANCH   4   3
ENDBRANCH  10   9
BRANCH  12  13
ATOM     13  N   UNL     1      41.802  44.434 245.277  0.00  0.00    -0.281 N 
ATOM     14  C   UNL     1      41.196  44.788 244.083  0.00  0.00    +0.248 C 
ATOM     30  O   UNL     1      41.760  44.802 242.999  0.00  0.00    -0.270 OA
ATOM     31  H   UNL     1      41.280  44.652 246.126  0.00  0.00    +0.155 HD
BRANCH  14  15
ATOM     15  C   UNL     1      39.759  45.200 244.096  0.00  0.00    +0.037 A 
ATOM     16  C   UNL     1      38.953  45.185 242.873  0.00  0.00    +0.013 A 
ATOM     17  C   UNL     1      37.574  45.603 242.910  0.00  0.00    +0.005 A 
ATOM     18  C   UNL     1      36.992  46.040 244.177  0.00  0.00    -0.033 A 
ATOM     28  C   UNL     1      37.813  46.040 245.376  0.00  0.00    +0.005 A 
ATOM     29  C   UNL     1      39.165  45.631 245.343  0.00  0.00    +0.013 A 
BRANCH  18  19
ATOM     19  C   UNL     1      35.535  46.523 244.306  0.00  0.00    +0.119 C 
BRANCH  19  20
ATOM     20  N   UNL     1      35.320  47.963 244.640  0.00  0.00    -0.302 NA
ATOM     21  C   UNL     1      34.135  48.161 245.589  0.00  0.00    +0.066 C 
ATOM     22  C   UNL     1      33.937  49.670 245.946  0.00  0.00    -0.064 C 
ATOM     23  N   UNL     1      33.741  50.474 244.659  0.00  0.00    +0.379 N 
ATOM     24  C   UNL     1      33.497  51.885 244.995  0.00  0.00    -0.096 C 
ATOM     25  H   UNL     1      32.828  50.084 244.153  0.00  0.00    -0.082 HD
ATOM     26  C   UNL     1      34.914  50.280 243.708  0.00  0.00    -0.064 C 
ATOM     27  C   UNL     1      35.119  48.774 243.384  0.00  0.00    +0.066 C 
ENDBRANCH  19  20
ENDBRANCH  18  19
ENDBRANCH  14  15
ENDBRANCH  12  13
TORSDOF 6
ENDMDL
MODEL 5
REMARK VINA RESULT:      -8.9      7.253     13.646
REMARK  Name = C:\Users\Docking\Desktop\test protocol\1iep_ligandH.pdb
REMARK  8 active torsions:
REMARK  status: ('A' for Active; 'I' for Inactive)
REMARK    1  A    between atoms: _5  and  _11
REMARK    2  A    between atoms: _19  and  _21
REMARK    3  A    between atoms: _22  and  _66
REMARK    4  A    between atoms: _27  and  _30
REMARK    5  A    between atoms: _32  and  _33
REMARK    6  A    between atoms: _38  and  _43
REMARK    7  A    between atoms: _43  and  _46
REMARK    8  A    between atoms: _53  and  _55
REMARK                            x       y       z     vdW  Elec       q    Type
REMARK                         _______ _______ _______ _____ _____    ______ ____
ROOT
ATOM     10  C   UNL     1      33.524  58.647 241.103  0.00  0.00    +0.038 A 
ATOM     11  C   UNL     1      33.599  57.409 241.790  0.00  0.00    +0.047 A 
ATOM     12  C   UNL     1      32.617  56.360 241.561  0.00  0.00    +0.035 A 
ATOM     32  C   UNL     1      31.572  56.606 240.623  0.00  0.00    +0.024 A 
ATOM     33  C   UNL     1      31.480  57.860 239.917  0.00  0.00    +0.007 A 
ATOM     34  C   UNL     1      32.445  58.899 240.141  0.00  0.00    -0.029 A 
ATOM     35  C   UNL     1      32.293  60.225 239.360  0.00  0.00    +0.045 C 
ENDROOT
BRANCH  10   9
ATOM      4  C   UNL     1      35.236  62.353 243.627  0.00  0.00    +0.077 A 
ATOM      5  C   UNL     1      34.088  62.373 244.488  0.00  0.00    +0.048 A 
ATOM      6  C   UNL     1      33.077  61.418 244.243  0.00  0.00    +0.116 A 
ATOM      7  N   UNL     1      33.213  60.514 243.212  0.00  0.00    -0.223 NA
ATOM      8  C   UNL     1      34.332  60.523 242.399  0.00  0.00    +0.220 A 
ATOM      9  N   UNL     1      34.494  59.618 241.361  0.00  0.00    -0.283 N 
ATOM     36  H   UNL     1      35.330  59.663 240.780  0.00  0.00    +0.155 HD
ATOM     37  N   UNL     1      35.311  61.426 242.612  0.00  0.00    -0.214 NA
BRANCH   4   3
ATOM      1  C   UNL     1      38.625  64.214 243.034  0.00  0.00    +0.020 A 
ATOM      2  C   UNL     1      37.536  63.280 242.861  0.00  0.00    +0.013 A 
ATOM      3  C   UNL     1      36.390  63.297 243.761  0.00  0.00    +0.019 A 
ATOM     38  C   UNL     1      36.376  64.280 244.834  0.00  0.00    +0.120 A 
ATOM     39  N   UNL     1      37.439  65.166 244.977  0.00  0.00    -0.263 NA
ATOM     40  C   UNL     1      38.548  65.158 244.118  0.00  0.00    +0.111 A 
ENDBRANCH   4   3
ENDBRANCH  10   9
BRANCH  12  13
ATOM     13  N   UNL     1      32.638  55.086 242.235  0.00  0.00    -0.281 N 
ATOM     14  C   UNL     1      33.336  53.944 241.877  0.00  0.00    +0.248 C 
ATOM     30  O   UNL     1      33.885  53.780 240.797  0.00  0.00    -0.270 OA
ATOM     31  H   UNL     1      32.069  55.017 243.079  0.00  0.00    +0.155 HD
BRANCH  14  15
ATOM     15  C   UNL     1      33.426  52.816 242.854  0.00  0.00    +0.037 A 
ATOM     16  C   UNL     1      32.910  52.950 244.218  0.00  0.00    +0.013 A 
ATOM     17  C   UNL     1      33.024  51.852 245.146  0.00  0.00    +0.005 A 
ATOM     18  C   UNL     1      33.658  50.610 244.710  0.00  0.00    -0.033 A 
ATOM     28  C   UNL     1      34.157  50.503 243.349  0.00  0.00    +0.005 A 
ATOM     29  C   UNL     1      34.047  51.577 242.438  0.00  0.00    +0.013 A 
BRANCH  18  19
ATOM     19  C   UNL     1      33.842  49.395 245.638  0.00  0.00    +0.119 C 
BRANCH  19  20
ATOM     20  N   UNL     1      34.531  48.198 245.070  0.00  0.00    -0.302 NA
ATOM     21  C   UNL     1      33.564  47.033 244.841  0.00  0.00    +0.066 C 
ATOM     22  C   UNL     1      34.297  45.798 244.225  0.00  0.00    -0.064 C 
ATOM     23  N   UNL     1      35.444  45.377 245.146  0.00  0.00    +0.379 N 
ATOM     24  C   UNL     1      36.098  44.180 244.598  0.00  0.00    -0.096 C 
ATOM     25  H   UNL     1      35.001  45.100 246.131  0.00  0.00    -0.082 HD
ATOM     26  C   UNL     1      36.409  46.530 245.381  0.00  0.00    -0.064 C 
ATOM     27  C   UNL     1      35.665  47.763 245.966  0.00  0.00    +0.066 C 
ENDBRANCH  19  20
ENDBRANCH  18  19
ENDBRANCH  14  15
ENDBRANCH  12  13
TORSDOF 6
ENDMDL
