MODEL 1
REMARK VINA RESULT:      -8.3      0.000      0.000
REMARK  Name = C:\Users\Docking\Desktop\test protocol\1iep_ligandH.pdb
REMARK  8 active torsions:
REMARK  status: ('A' for Active; 'I' for Inactive)
REMARK    1  A    between atoms: _5  and  _11
REMARK    2  A    between atoms: _19  and  _21
REMARK    3  A    between atoms: _22  and  _66
REMARK    4  A    between atoms: _27  and  _30
REMARK    5  A    between atoms: _32  and  _33
REMARK    6  A    between atoms: _38  and  _43
REMARK    7  A    between atoms: _43  and  _46
REMARK    8  A    between atoms: _53  and  _55
REMARK                            x       y       z     vdW  Elec       q    Type
REMARK                         _______ _______ _______ _____ _____    ______ ____
ROOT
ATOM     10  C   UNL     1       6.492  -3.106  19.674  0.00  0.00    +0.038 A 
ATOM     11  C   UNL     1       7.872  -3.389  19.508  0.00  0.00    +0.047 A 
ATOM     12  C   UNL     1       8.318  -4.508  18.694  0.00  0.00    +0.035 A 
ATOM     32  C   UNL     1       7.331  -5.319  18.061  0.00  0.00    +0.024 A 
ATOM     33  C   UNL     1       5.925  -5.046  18.219  0.00  0.00    +0.007 A 
ATOM     34  C   UNL     1       5.478  -3.945  19.023  0.00  0.00    -0.029 A 
ATOM     35  C   UNL     1       3.957  -3.703  19.163  0.00  0.00    +0.045 C 
ENDROOT
BRANCH  10   9
ATOM      4  C   UNL     1       5.159  -1.181  23.863  0.00  0.00    +0.077 A 
ATOM      5  C   UNL     1       5.179  -2.455  24.523  0.00  0.00    +0.048 A 
ATOM      6  C   UNL     1       5.532  -3.582  23.746  0.00  0.00    +0.116 A 
ATOM      7  N   UNL     1       5.839  -3.434  22.411  0.00  0.00    -0.223 NA
ATOM      8  C   UNL     1       5.807  -2.191  21.806  0.00  0.00    +0.220 A 
ATOM      9  N   UNL     1       6.120  -2.018  20.466  0.00  0.00    -0.283 N 
ATOM     36  H   UNL     1       6.078  -1.086  20.055  0.00  0.00    +0.155 HD
ATOM     37  N   UNL     1       5.473  -1.100  22.525  0.00  0.00    -0.214 NA
BRANCH   4   3
ATOM      1  C   UNL     1       3.634   1.432  26.343  0.00  0.00    +0.020 A 
ATOM      2  C   UNL     1       3.939   0.166  25.717  0.00  0.00    +0.013 A 
ATOM      3  C   UNL     1       4.810   0.103  24.550  0.00  0.00    +0.019 A 
ATOM     38  C   UNL     1       5.360   1.349  24.037  0.00  0.00    +0.120 A 
ATOM     39  N   UNL     1       5.047   2.553  24.660  0.00  0.00    -0.263 NA
ATOM     40  C   UNL     1       4.209   2.626  25.783  0.00  0.00    +0.111 A 
ENDBRANCH   4   3
ENDBRANCH  10   9
BRANCH  12  13
ATOM     13  N   UNL     1       9.705  -4.849  18.496  0.00  0.00    -0.281 N 
ATOM     14  C   UNL     1      10.434  -4.803  17.318  0.00  0.00    +0.248 C 
ATOM     30  O   UNL     1       9.944  -4.666  16.208  0.00  0.00    -0.270 OA
ATOM     31  H   UNL     1      10.212  -5.162  19.324  0.00  0.00    +0.155 HD
BRANCH  14  15
ATOM     15  C   UNL     1      11.920  -4.946  17.383  0.00  0.00    +0.037 A 
ATOM     16  C   UNL     1      12.716  -5.159  16.172  0.00  0.00    +0.013 A 
ATOM     17  C   UNL     1      14.147  -5.311  16.264  0.00  0.00    +0.005 A 
ATOM     18  C   UNL     1      14.791  -5.248  17.573  0.00  0.00    -0.033 A 
ATOM     28  C   UNL     1      13.977  -5.030  18.758  0.00  0.00    +0.005 A 
ATOM     29  C   UNL     1      12.575  -4.882  18.672  0.00  0.00    +0.013 A 
BRANCH  18  19
ATOM     19  C   UNL     1      16.309  -5.420  17.768  0.00  0.00    +0.119 C 
BRANCH  19  20
ATOM     20  N   UNL     1      16.841  -6.815  17.791  0.00  0.00    -0.302 NA
ATOM     21  C   UNL     1      16.598  -7.501  19.139  0.00  0.00    +0.066 C 
ATOM     22  C   UNL     1      17.141  -8.967  19.138  0.00  0.00    -0.064 C 
ATOM     23  N   UNL     1      18.633  -8.955  18.798  0.00  0.00    +0.379 N 
ATOM     24  C   UNL     1      19.159 -10.326  18.853  0.00  0.00    -0.096 C 
ATOM     25  H   UNL     1      19.154  -8.360  19.584  0.00  0.00    -0.082 HD
ATOM     26  C   UNL     1      18.884  -8.272  17.460  0.00  0.00    -0.064 C 
ATOM     27  C   UNL     1      18.314  -6.826  17.462  0.00  0.00    +0.066 C 
ENDBRANCH  19  20
ENDBRANCH  18  19
ENDBRANCH  14  15
ENDBRANCH  12  13
TORSDOF 6
ENDMDL
MODEL 2
REMARK VINA RESULT:      -8.3      2.334      3.655
REMARK  Name = C:\Users\Docking\Desktop\test protocol\1iep_ligandH.pdb
REMARK  8 active torsions:
REMARK  status: ('A' for Active; 'I' for Inactive)
REMARK    1  A    between atoms: _5  and  _11
REMARK    2  A    between atoms: _19  and  _21
REMARK    3  A    between atoms: _22  and  _66
REMARK    4  A    between atoms: _27  and  _30
REMARK    5  A    between atoms: _32  and  _33
REMARK    6  A    between atoms: _38  and  _43
REMARK    7  A    between atoms: _43  and  _46
REMARK    8  A    between atoms: _53  and  _55
REMARK                            x       y       z     vdW  Elec       q    Type
REMARK                         _______ _______ _______ _____ _____    ______ ____
ROOT
ATOM     10  C   UNL     1       8.579  -4.675  18.593  0.00  0.00    +0.038 A 
ATOM     11  C   UNL     1       9.900  -5.139  18.820  0.00  0.00    +0.047 A 
ATOM     12  C   UNL     1      10.882  -5.167  17.747  0.00  0.00    +0.035 A 
ATOM     32  C   UNL     1      10.485  -4.713  16.456  0.00  0.00    +0.024 A 
ATOM     33  C   UNL     1       9.147  -4.239  16.207  0.00  0.00    +0.007 A 
ATOM     34  C   UNL     1       8.173  -4.211  17.261  0.00  0.00    -0.029 A 
ATOM     35  C   UNL     1       6.750  -3.699  16.936  0.00  0.00    +0.045 C 
ENDROOT
BRANCH  10   9
ATOM      4  C   UNL     1       6.822  -2.787  22.641  0.00  0.00    +0.077 A 
ATOM      5  C   UNL     1       7.801  -1.739  22.647  0.00  0.00    +0.048 A 
ATOM      6  C   UNL     1       8.744  -1.725  21.595  0.00  0.00    +0.116 A 
ATOM      7  N   UNL     1       8.700  -2.693  20.614  0.00  0.00    -0.223 NA
ATOM      8  C   UNL     1       7.744  -3.691  20.639  0.00  0.00    +0.220 A 
ATOM      9  N   UNL     1       7.677  -4.669  19.659  0.00  0.00    -0.283 N 
ATOM     36  H   UNL     1       6.961  -5.393  19.717  0.00  0.00    +0.155 HD
ATOM     37  N   UNL     1       6.834  -3.727  21.634  0.00  0.00    -0.214 NA
BRANCH   4   3
ATOM      1  C   UNL     1       4.203  -2.004  25.439  0.00  0.00    +0.020 A 
ATOM      2  C   UNL     1       5.232  -1.808  24.444  0.00  0.00    +0.013 A 
ATOM      3  C   UNL     1       5.758  -2.935  23.684  0.00  0.00    +0.019 A 
ATOM     38  C   UNL     1       5.217  -4.258  23.957  0.00  0.00    +0.120 A 
ATOM     39  N   UNL     1       4.228  -4.416  24.923  0.00  0.00    -0.263 NA
ATOM     40  C   UNL     1       3.715  -3.339  25.661  0.00  0.00    +0.111 A 
ENDBRANCH   4   3
ENDBRANCH  10   9
BRANCH  12  13
ATOM     13  N   UNL     1      12.236  -5.635  17.916  0.00  0.00    -0.281 N 
ATOM     14  C   UNL     1      13.398  -4.883  17.956  0.00  0.00    +0.248 C 
ATOM     30  O   UNL     1      13.470  -3.705  17.638  0.00  0.00    -0.270 OA
ATOM     31  H   UNL     1      12.351  -6.644  18.018  0.00  0.00    +0.155 HD
BRANCH  14  15
ATOM     15  C   UNL     1      14.666  -5.537  18.401  0.00  0.00    +0.037 A 
ATOM     16  C   UNL     1      14.766  -6.193  19.707  0.00  0.00    +0.013 A 
ATOM     17  C   UNL     1      16.006  -6.802  20.118  0.00  0.00    +0.005 A 
ATOM     18  C   UNL     1      17.158  -6.757  19.221  0.00  0.00    -0.033 A 
ATOM     28  C   UNL     1      17.030  -6.104  17.929  0.00  0.00    +0.005 A 
ATOM     29  C   UNL     1      15.816  -5.505  17.522  0.00  0.00    +0.013 A 
BRANCH  18  19
ATOM     19  C   UNL     1      18.526  -7.361  19.586  0.00  0.00    +0.119 C 
BRANCH  19  20
ATOM     20  N   UNL     1      19.040  -8.465  18.720  0.00  0.00    -0.302 NA
ATOM     21  C   UNL     1      19.631  -7.939  17.409  0.00  0.00    +0.066 C 
ATOM     22  C   UNL     1      20.184  -9.104  16.526  0.00  0.00    -0.064 C 
ATOM     23  N   UNL     1      19.062 -10.107  16.250  0.00  0.00    +0.379 N 
ATOM     24  C   UNL     1      19.563 -11.174  15.371  0.00  0.00    -0.096 C 
ATOM     25  H   UNL     1      18.255  -9.568  15.701  0.00  0.00    -0.082 HD
ATOM     26  C   UNL     1      18.466 -10.633  17.548  0.00  0.00    -0.064 C 
ATOM     27  C   UNL     1      17.947  -9.464  18.431  0.00  0.00    +0.066 C 
ENDBRANCH  19  20
ENDBRANCH  18  19
ENDBRANCH  14  15
ENDBRANCH  12  13
TORSDOF 6
ENDMDL
MODEL 3
REMARK VINA RESULT:      -8.0      7.621     11.760
REMARK  Name = C:\Users\Docking\Desktop\test protocol\1iep_ligandH.pdb
REMARK  8 active torsions:
REMARK  status: ('A' for Active; 'I' for Inactive)
REMARK    1  A    between atoms: _5  and  _11
REMARK    2  A    between atoms: _19  and  _21
REMARK    3  A    between atoms: _22  and  _66
REMARK    4  A    between atoms: _27  and  _30
REMARK    5  A    between atoms: _32  and  _33
REMARK    6  A    between atoms: _38  and  _43
REMARK    7  A    between atoms: _43  and  _46
REMARK    8  A    between atoms: _53  and  _55
REMARK                            x       y       z     vdW  Elec       q    Type
REMARK                         _______ _______ _______ _____ _____    ______ ____
ROOT
ATOM     10  C   UNL     1       2.061 -10.359  16.123  0.00  0.00    +0.038 A 
ATOM     11  C   UNL     1       2.598  -9.156  16.648  0.00  0.00    +0.047 A 
ATOM     12  C   UNL     1       3.986  -9.075  17.075  0.00  0.00    +0.035 A 
ATOM     32  C   UNL     1       4.800 -10.239  16.950  0.00  0.00    +0.024 A 
ATOM     33  C   UNL     1       4.270 -11.470  16.420  0.00  0.00    +0.007 A 
ATOM     34  C   UNL     1       2.901 -11.556  15.999  0.00  0.00    -0.029 A 
ATOM     35  C   UNL     1       2.385 -12.904  15.443  0.00  0.00    +0.045 C 
ENDROOT
BRANCH  10   9
ATOM      4  C   UNL     1      -2.613 -10.949  17.040  0.00  0.00    +0.077 A 
ATOM      5  C   UNL     1      -2.363 -11.268  18.416  0.00  0.00    +0.048 A 
ATOM      6  C   UNL     1      -1.018 -11.276  18.846  0.00  0.00    +0.116 A 
ATOM      7  N   UNL     1      -0.005 -10.985  17.958  0.00  0.00    -0.223 NA
ATOM      8  C   UNL     1      -0.281 -10.683  16.637  0.00  0.00    +0.220 A 
ATOM      9  N   UNL     1       0.721 -10.380  15.728  0.00  0.00    -0.283 N 
ATOM     36  H   UNL     1       0.478 -10.170  14.760  0.00  0.00    +0.155 HD
ATOM     37  N   UNL     1      -1.557 -10.670  16.201  0.00  0.00    -0.214 NA
BRANCH   4   3
ATOM      1  C   UNL     1      -5.984 -11.968  15.337  0.00  0.00    +0.020 A 
ATOM      2  C   UNL     1      -4.662 -12.073  15.910  0.00  0.00    +0.013 A 
ATOM      3  C   UNL     1      -3.982 -10.896  16.436  0.00  0.00    +0.019 A 
ATOM     38  C   UNL     1      -4.673  -9.617  16.367  0.00  0.00    +0.120 A 
ATOM     39  N   UNL     1      -5.946  -9.546  15.808  0.00  0.00    -0.263 NA
ATOM     40  C   UNL     1      -6.609 -10.672  15.297  0.00  0.00    +0.111 A 
ENDBRANCH   4   3
ENDBRANCH  10   9
BRANCH  12  13
ATOM     13  N   UNL     1       4.585  -7.883  17.624  0.00  0.00    -0.281 N 
ATOM     14  C   UNL     1       4.818  -6.676  16.986  0.00  0.00    +0.248 C 
ATOM     30  O   UNL     1       4.741  -6.507  15.778  0.00  0.00    -0.270 OA
ATOM     31  H   UNL     1       4.872  -7.936  18.601  0.00  0.00    +0.155 HD
BRANCH  14  15
ATOM     15  C   UNL     1       5.207  -5.489  17.806  0.00  0.00    +0.037 A 
ATOM     16  C   UNL     1       6.594  -5.019  17.853  0.00  0.00    +0.013 A 
ATOM     17  C   UNL     1       6.945  -3.882  18.666  0.00  0.00    +0.005 A 
ATOM     18  C   UNL     1       5.905  -3.205  19.438  0.00  0.00    -0.033 A 
ATOM     28  C   UNL     1       4.537  -3.689  19.369  0.00  0.00    +0.005 A 
ATOM     29  C   UNL     1       4.189  -4.804  18.574  0.00  0.00    +0.013 A 
BRANCH  18  19
ATOM     19  C   UNL     1       6.193  -1.997  20.349  0.00  0.00    +0.119 C 
BRANCH  19  20
ATOM     20  N   UNL     1       7.032  -2.238  21.560  0.00  0.00    -0.302 NA
ATOM     21  C   UNL     1       8.528  -2.249  21.231  0.00  0.00    +0.066 C 
ATOM     22  C   UNL     1       9.391  -2.480  22.513  0.00  0.00    -0.064 C 
ATOM     23  N   UNL     1       8.974  -3.794  23.176  0.00  0.00    +0.379 N 
ATOM     24  C   UNL     1       9.823  -4.043  24.350  0.00  0.00    -0.096 C 
ATOM     25  H   UNL     1       9.157  -4.615  22.445  0.00  0.00    -0.082 HD
ATOM     26  C   UNL     1       7.487  -3.793  23.505  0.00  0.00    -0.064 C 
ATOM     27  C   UNL     1       6.639  -3.533  22.229  0.00  0.00    +0.066 C 
ENDBRANCH  19  20
ENDBRANCH  18  19
ENDBRANCH  14  15
ENDBRANCH  12  13
TORSDOF 6
ENDMDL
MODEL 4
REMARK VINA RESULT:      -8.0     14.289     17.995
REMARK  Name = C:\Users\Docking\Desktop\test protocol\1iep_ligandH.pdb
REMARK  8 active torsions:
REMARK  status: ('A' for Active; 'I' for Inactive)
REMARK    1  A    between atoms: _5  and  _11
REMARK    2  A    between atoms: _19  and  _21
REMARK    3  A    between atoms: _22  and  _66
REMARK    4  A    between atoms: _27  and  _30
REMARK    5  A    between atoms: _32  and  _33
REMARK    6  A    between atoms: _38  and  _43
REMARK    7  A    between atoms: _43  and  _46
REMARK    8  A    between atoms: _53  and  _55
REMARK                            x       y       z     vdW  Elec       q    Type
REMARK                         _______ _______ _______ _____ _____    ______ ____
ROOT
ATOM     10  C   UNL     1       8.263 -15.927  11.025  0.00  0.00    +0.038 A 
ATOM     11  C   UNL     1       7.709 -15.452   9.809  0.00  0.00    +0.047 A 
ATOM     12  C   UNL     1       8.117 -16.008   8.528  0.00  0.00    +0.035 A 
ATOM     32  C   UNL     1       9.091 -17.049   8.523  0.00  0.00    +0.024 A 
ATOM     33  C   UNL     1       9.665 -17.543   9.750  0.00  0.00    +0.007 A 
ATOM     34  C   UNL     1       9.268 -16.997  11.016  0.00  0.00    -0.029 A 
ATOM     35  C   UNL     1       9.922 -17.561  12.299  0.00  0.00    +0.045 C 
ENDROOT
BRANCH  10   9
ATOM      4  C   UNL     1       8.815 -12.899  14.707  0.00  0.00    +0.077 A 
ATOM      5  C   UNL     1      10.077 -12.431  14.210  0.00  0.00    +0.048 A 
ATOM      6  C   UNL     1      10.552 -13.000  13.007  0.00  0.00    +0.116 A 
ATOM      7  N   UNL     1       9.812 -13.965  12.359  0.00  0.00    -0.223 NA
ATOM      8  C   UNL     1       8.599 -14.395  12.866  0.00  0.00    +0.220 A 
ATOM      9  N   UNL     1       7.834 -15.358  12.226  0.00  0.00    -0.283 N 
ATOM     36  H   UNL     1       6.949 -15.653  12.636  0.00  0.00    +0.155 HD
ATOM     37  N   UNL     1       8.125 -13.867  14.014  0.00  0.00    -0.214 NA
BRANCH   4   3
ATOM      1  C   UNL     1       6.308 -11.262  17.225  0.00  0.00    +0.020 A 
ATOM      2  C   UNL     1       6.879 -11.733  15.984  0.00  0.00    +0.013 A 
ATOM      3  C   UNL     1       8.179 -12.391  15.964  0.00  0.00    +0.019 A 
ATOM     38  C   UNL     1       8.881 -12.559  17.227  0.00  0.00    +0.120 A 
ATOM     39  N   UNL     1       8.308 -12.094  18.407  0.00  0.00    -0.263 NA
ATOM     40  C   UNL     1       7.058 -11.458  18.438  0.00  0.00    +0.111 A 
ENDBRANCH   4   3
ENDBRANCH  10   9
BRANCH  12  13
ATOM     13  N   UNL     1       7.595 -15.560   7.261  0.00  0.00    -0.281 N 
ATOM     14  C   UNL     1       6.272 -15.510   6.854  0.00  0.00    +0.248 C 
ATOM     30  O   UNL     1       5.346 -16.046   7.446  0.00  0.00    -0.270 OA
ATOM     31  H   UNL     1       8.285 -15.242   6.580  0.00  0.00    +0.155 HD
BRANCH  14  15
ATOM     15  C   UNL     1       5.929 -14.769   5.602  0.00  0.00    +0.037 A 
ATOM     16  C   UNL     1       4.686 -14.001   5.490  0.00  0.00    +0.013 A 
ATOM     17  C   UNL     1       4.371 -13.310   4.265  0.00  0.00    +0.005 A 
ATOM     18  C   UNL     1       5.302 -13.383   3.142  0.00  0.00    -0.033 A 
ATOM     28  C   UNL     1       6.530 -14.148   3.282  0.00  0.00    +0.005 A 
ATOM     29  C   UNL     1       6.842 -14.828   4.481  0.00  0.00    +0.013 A 
BRANCH  18  19
ATOM     19  C   UNL     1       5.038 -12.694   1.790  0.00  0.00    +0.119 C 
BRANCH  19  20
ATOM     20  N   UNL     1       3.723 -12.006   1.619  0.00  0.00    -0.302 NA
ATOM     21  C   UNL     1       2.640 -12.957   1.102  0.00  0.00    +0.066 C 
ATOM     22  C   UNL     1       1.266 -12.227   0.951  0.00  0.00    -0.064 C 
ATOM     23  N   UNL     1       1.429 -11.030   0.011  0.00  0.00    +0.379 N 
ATOM     24  C   UNL     1       0.127 -10.375  -0.179  0.00  0.00    -0.096 C 
ATOM     25  H   UNL     1       1.760 -11.421  -0.979  0.00  0.00    -0.082 HD
ATOM     26  C   UNL     1       2.507 -10.081   0.516  0.00  0.00    -0.064 C 
ATOM     27  C   UNL     1       3.860 -10.824   0.691  0.00  0.00    +0.066 C 
ENDBRANCH  19  20
ENDBRANCH  18  19
ENDBRANCH  14  15
ENDBRANCH  12  13
TORSDOF 6
ENDMDL
MODEL 5
REMARK VINA RESULT:      -8.0      2.930      4.279
REMARK  Name = C:\Users\Docking\Desktop\test protocol\1iep_ligandH.pdb
REMARK  8 active torsions:
REMARK  status: ('A' for Active; 'I' for Inactive)
REMARK    1  A    between atoms: _5  and  _11
REMARK    2  A    between atoms: _19  and  _21
REMARK    3  A    between atoms: _22  and  _66
REMARK    4  A    between atoms: _27  and  _30
REMARK    5  A    between atoms: _32  and  _33
REMARK    6  A    between atoms: _38  and  _43
REMARK    7  A    between atoms: _43  and  _46
REMARK    8  A    between atoms: _53  and  _55
REMARK                            x       y       z     vdW  Elec       q    Type
REMARK                         _______ _______ _______ _____ _____    ______ ____
ROOT
ATOM     10  C   UNL     1       8.823  -4.678  18.677  0.00  0.00    +0.038 A 
ATOM     11  C   UNL     1      10.129  -5.148  18.971  0.00  0.00    +0.047 A 
ATOM     12  C   UNL     1      11.145  -5.244  17.934  0.00  0.00    +0.035 A 
ATOM     32  C   UNL     1      10.798  -4.850  16.609  0.00  0.00    +0.024 A 
ATOM     33  C   UNL     1       9.476  -4.371  16.292  0.00  0.00    +0.007 A 
ATOM     34  C   UNL     1       8.468  -4.276  17.310  0.00  0.00    -0.029 A 
ATOM     35  C   UNL     1       7.065  -3.762  16.912  0.00  0.00    +0.045 C 
ENDROOT
BRANCH  10   9
ATOM      4  C   UNL     1       7.049  -2.647  22.647  0.00  0.00    +0.077 A 
ATOM      5  C   UNL     1       8.092  -1.662  22.680  0.00  0.00    +0.048 A 
ATOM      6  C   UNL     1       9.069  -1.717  21.662  0.00  0.00    +0.116 A 
ATOM      7  N   UNL     1       8.999  -2.689  20.687  0.00  0.00    -0.223 NA
ATOM      8  C   UNL     1       7.981  -3.625  20.685  0.00  0.00    +0.220 A 
ATOM      9  N   UNL     1       7.887  -4.606  19.710  0.00  0.00    -0.283 N 
ATOM     36  H   UNL     1       7.125  -5.282  19.748  0.00  0.00    +0.155 HD
ATOM     37  N   UNL     1       7.036  -3.594  21.648  0.00  0.00    -0.214 NA
BRANCH   4   3
ATOM      1  C   UNL     1       4.350  -1.666  25.303  0.00  0.00    +0.020 A 
ATOM      2  C   UNL     1       5.421  -1.543  24.341  0.00  0.00    +0.013 A 
ATOM      3  C   UNL     1       5.942  -2.717  23.652  0.00  0.00    +0.019 A 
ATOM     38  C   UNL     1       5.351  -4.011  23.961  0.00  0.00    +0.120 A 
ATOM     39  N   UNL     1       4.322  -4.099  24.893  0.00  0.00    -0.263 NA
ATOM     40  C   UNL     1       3.814  -2.976  25.564  0.00  0.00    +0.111 A 
ENDBRANCH   4   3
ENDBRANCH  10   9
BRANCH  12  13
ATOM     13  N   UNL     1      12.485  -5.722  18.172  0.00  0.00    -0.281 N 
ATOM     14  C   UNL     1      13.668  -5.003  18.113  0.00  0.00    +0.248 C 
ATOM     30  O   UNL     1      13.773  -3.883  17.636  0.00  0.00    -0.270 OA
ATOM     31  H   UNL     1      12.572  -6.709  18.412  0.00  0.00    +0.155 HD
BRANCH  14  15
ATOM     15  C   UNL     1      14.917  -5.624  18.649  0.00  0.00    +0.037 A 
ATOM     16  C   UNL     1      16.081  -5.855  17.789  0.00  0.00    +0.013 A 
ATOM     17  C   UNL     1      17.267  -6.472  18.327  0.00  0.00    +0.005 A 
ATOM     18  C   UNL     1      17.296  -6.861  19.735  0.00  0.00    -0.033 A 
ATOM     28  C   UNL     1      16.130  -6.616  20.567  0.00  0.00    +0.005 A 
ATOM     29  C   UNL     1      14.965  -6.012  20.043  0.00  0.00    +0.013 A 
BRANCH  18  19
ATOM     19  C   UNL     1      18.512  -7.544  20.389  0.00  0.00    +0.119 C 
BRANCH  19  20
ATOM     20  N   UNL     1      18.835  -7.163  21.796  0.00  0.00    -0.302 NA
ATOM     21  C   UNL     1      20.185  -6.448  21.902  0.00  0.00    +0.066 C 
ATOM     22  C   UNL     1      20.497  -6.036  23.378  0.00  0.00    -0.064 C 
ATOM     23  N   UNL     1      20.472  -7.281  24.268  0.00  0.00    +0.379 N 
ATOM     24  C   UNL     1      20.821  -6.906  25.646  0.00  0.00    -0.096 C 
ATOM     25  H   UNL     1      21.258  -7.978  23.896  0.00  0.00    -0.082 HD
ATOM     26  C   UNL     1      19.133  -7.999  24.166  0.00  0.00    -0.064 C 
ATOM     27  C   UNL     1      18.820  -8.377  22.692  0.00  0.00    +0.066 C 
ENDBRANCH  19  20
ENDBRANCH  18  19
ENDBRANCH  14  15
ENDBRANCH  12  13
TORSDOF 6
ENDMDL
