MODEL 1
REMARK VINA RESULT:      -9.5      0.000      0.000
REMARK  Name = C:\Users\Docking\Desktop\test protocol\1iep_ligandH.pdb
REMARK  8 active torsions:
REMARK  status: ('A' for Active; 'I' for Inactive)
REMARK    1  A    between atoms: _5  and  _11
REMARK    2  A    between atoms: _19  and  _21
REMARK    3  A    between atoms: _22  and  _66
REMARK    4  A    between atoms: _27  and  _30
REMARK    5  A    between atoms: _32  and  _33
REMARK    6  A    between atoms: _38  and  _43
REMARK    7  A    between atoms: _43  and  _46
REMARK    8  A    between atoms: _53  and  _55
REMARK                            x       y       z     vdW  Elec       q    Type
REMARK                         _______ _______ _______ _____ _____    ______ ____
ROOT
ATOM     10  C   UNL     1      10.016  27.573  20.815  0.00  0.00    +0.038 A 
ATOM     11  C   UNL     1       9.444  28.678  20.136  0.00  0.00    +0.047 A 
ATOM     12  C   UNL     1       8.613  29.645  20.837  0.00  0.00    +0.035 A 
ATOM     32  C   UNL     1       8.390  29.456  22.232  0.00  0.00    +0.024 A 
ATOM     33  C   UNL     1       8.963  28.338  22.938  0.00  0.00    +0.007 A 
ATOM     34  C   UNL     1       9.781  27.379  22.251  0.00  0.00    -0.029 A 
ATOM     35  C   UNL     1      10.364  26.196  23.057  0.00  0.00    +0.045 C 
ENDROOT
BRANCH  10   9
ATOM      4  C   UNL     1      10.541  23.791  17.906  0.00  0.00    +0.077 A 
ATOM      5  C   UNL     1       9.126  23.568  17.843  0.00  0.00    +0.048 A 
ATOM      6  C   UNL     1       8.297  24.445  18.579  0.00  0.00    +0.116 A 
ATOM      7  N   UNL     1       8.854  25.465  19.320  0.00  0.00    -0.223 NA
ATOM      8  C   UNL     1      10.224  25.651  19.360  0.00  0.00    +0.220 A 
ATOM      9  N   UNL     1      10.805  26.675  20.092  0.00  0.00    -0.283 N 
ATOM     36  H   UNL     1      11.820  26.774  20.102  0.00  0.00    +0.155 HD
ATOM     37  N   UNL     1      11.036  24.826  18.667  0.00  0.00    -0.214 NA
BRANCH   4   3
ATOM      1  C   UNL     1      12.182  21.095  15.595  0.00  0.00    +0.020 A 
ATOM      2  C   UNL     1      11.172  21.876  16.271  0.00  0.00    +0.013 A 
ATOM      3  C   UNL     1      11.546  22.952  17.180  0.00  0.00    +0.019 A 
ATOM     38  C   UNL     1      12.963  23.215  17.384  0.00  0.00    +0.120 A 
ATOM     39  N   UNL     1      13.914  22.445  16.720  0.00  0.00    -0.263 NA
ATOM     40  C   UNL     1      13.565  21.406  15.844  0.00  0.00    +0.111 A 
ENDBRANCH   4   3
ENDBRANCH  10   9
BRANCH  12  13
ATOM     13  N   UNL     1       7.999  30.782  20.199  0.00  0.00    -0.281 N 
ATOM     14  C   UNL     1       7.064  31.655  20.731  0.00  0.00    +0.248 C 
ATOM     30  O   UNL     1       6.452  31.463  21.771  0.00  0.00    -0.270 OA
ATOM     31  H   UNL     1       8.288  30.966  19.238  0.00  0.00    +0.155 HD
BRANCH  14  15
ATOM     15  C   UNL     1       6.754  32.918  19.993  0.00  0.00    +0.037 A 
ATOM     16  C   UNL     1       7.800  33.662  19.287  0.00  0.00    +0.013 A 
ATOM     17  C   UNL     1       7.476  34.886  18.597  0.00  0.00    +0.005 A 
ATOM     18  C   UNL     1       6.099  35.373  18.611  0.00  0.00    -0.033 A 
ATOM     28  C   UNL     1       5.080  34.612  19.315  0.00  0.00    +0.005 A 
ATOM     29  C   UNL     1       5.394  33.412  19.992  0.00  0.00    +0.013 A 
BRANCH  18  19
ATOM     19  C   UNL     1       5.667  36.680  17.920  0.00  0.00    +0.119 C 
BRANCH  19  20
ATOM     20  N   UNL     1       5.099  37.756  18.786  0.00  0.00    -0.302 NA
ATOM     21  C   UNL     1       5.466  39.154  18.281  0.00  0.00    +0.066 C 
ATOM     22  C   UNL     1       4.845  40.267  19.186  0.00  0.00    -0.064 C 
ATOM     23  N   UNL     1       5.316  40.071  20.628  0.00  0.00    +0.379 N 
ATOM     24  C   UNL     1       4.780  41.150  21.470  0.00  0.00    -0.096 C 
ATOM     25  H   UNL     1       6.428  40.157  20.634  0.00  0.00    -0.082 HD
ATOM     26  C   UNL     1       4.958  38.682  21.137  0.00  0.00    -0.064 C 
ATOM     27  C   UNL     1       5.555  37.584  20.214  0.00  0.00    +0.066 C 
ENDBRANCH  19  20
ENDBRANCH  18  19
ENDBRANCH  14  15
ENDBRANCH  12  13
TORSDOF 6
ENDMDL
MODEL 2
REMARK VINA RESULT:      -9.0     11.323     13.719
REMARK  Name = C:\Users\Docking\Desktop\test protocol\1iep_ligandH.pdb
REMARK  8 active torsions:
REMARK  status: ('A' for Active; 'I' for Inactive)
REMARK    1  A    between atoms: _5  and  _11
REMARK    2  A    between atoms: _19  and  _21
REMARK    3  A    between atoms: _22  and  _66
REMARK    4  A    between atoms: _27  and  _30
REMARK    5  A    between atoms: _32  and  _33
REMARK    6  A    between atoms: _38  and  _43
REMARK    7  A    between atoms: _43  and  _46
REMARK    8  A    between atoms: _53  and  _55
REMARK                            x       y       z     vdW  Elec       q    Type
REMARK                         _______ _______ _______ _____ _____    ______ ____
ROOT
ATOM     10  C   UNL     1      13.792  22.870  16.629  0.00  0.00    +0.038 A 
ATOM     11  C   UNL     1      12.867  22.630  15.581  0.00  0.00    +0.047 A 
ATOM     12  C   UNL     1      11.770  21.690  15.747  0.00  0.00    +0.035 A 
ATOM     32  C   UNL     1      11.643  21.012  16.994  0.00  0.00    +0.024 A 
ATOM     33  C   UNL     1      12.575  21.243  18.070  0.00  0.00    +0.007 A 
ATOM     34  C   UNL     1      13.661  22.168  17.912  0.00  0.00    -0.029 A 
ATOM     35  C   UNL     1      14.634  22.371  19.097  0.00  0.00    +0.045 C 
ENDROOT
BRANCH  10   9
ATOM      4  C   UNL     1      18.079  24.066  14.832  0.00  0.00    +0.077 A 
ATOM      5  C   UNL     1      18.287  22.752  14.296  0.00  0.00    +0.048 A 
ATOM      6  C   UNL     1      17.270  21.795  14.510  0.00  0.00    +0.116 A 
ATOM      7  N   UNL     1      16.133  22.139  15.210  0.00  0.00    -0.223 NA
ATOM      8  C   UNL     1      15.965  23.414  15.716  0.00  0.00    +0.220 A 
ATOM      9  N   UNL     1      14.827  23.784  16.416  0.00  0.00    -0.283 N 
ATOM     36  H   UNL     1      14.744  24.733  16.780  0.00  0.00    +0.155 HD
ATOM     37  N   UNL     1      16.923  24.346  15.526  0.00  0.00    -0.214 NA
BRANCH   4   3
ATOM      1  C   UNL     1      19.647  27.611  14.307  0.00  0.00    +0.020 A 
ATOM      2  C   UNL     1      18.658  26.566  14.440  0.00  0.00    +0.013 A 
ATOM      3  C   UNL     1      19.061  25.187  14.686  0.00  0.00    +0.019 A 
ATOM     38  C   UNL     1      20.483  24.897  14.794  0.00  0.00    +0.120 A 
ATOM     39  N   UNL     1      21.412  25.924  14.660  0.00  0.00    -0.263 NA
ATOM     40  C   UNL     1      21.037  27.255  14.421  0.00  0.00    +0.111 A 
ENDBRANCH   4   3
ENDBRANCH  10   9
BRANCH  12  13
ATOM     13  N   UNL     1      10.805  21.400  14.715  0.00  0.00    -0.281 N 
ATOM     14  C   UNL     1       9.424  21.484  14.793  0.00  0.00    +0.248 C 
ATOM     30  O   UNL     1       8.798  21.618  15.834  0.00  0.00    -0.270 OA
ATOM     31  H   UNL     1      11.186  21.096  13.819  0.00  0.00    +0.155 HD
BRANCH  14  15
ATOM     15  C   UNL     1       8.623  21.392  13.534  0.00  0.00    +0.037 A 
ATOM     16  C   UNL     1       7.817  22.521  13.063  0.00  0.00    +0.013 A 
ATOM     17  C   UNL     1       7.040  22.400  11.854  0.00  0.00    +0.005 A 
ATOM     18  C   UNL     1       7.068  21.145  11.108  0.00  0.00    -0.033 A 
ATOM     28  C   UNL     1       7.880  20.043  11.596  0.00  0.00    +0.005 A 
ATOM     29  C   UNL     1       8.642  20.157  12.780  0.00  0.00    +0.013 A 
BRANCH  18  19
ATOM     19  C   UNL     1       6.254  20.919   9.820  0.00  0.00    +0.119 C 
BRANCH  19  20
ATOM     20  N   UNL     1       6.719  21.620   8.586  0.00  0.00    -0.302 NA
ATOM     21  C   UNL     1       5.759  21.412   7.411  0.00  0.00    +0.066 C 
ATOM     22  C   UNL     1       6.249  22.170   6.135  0.00  0.00    -0.064 C 
ATOM     23  N   UNL     1       7.659  21.697   5.773  0.00  0.00    +0.379 N 
ATOM     24  C   UNL     1       8.099  22.365   4.540  0.00  0.00    -0.096 C 
ATOM     25  H   UNL     1       7.604  20.603   5.565  0.00  0.00    -0.082 HD
ATOM     26  C   UNL     1       8.619  21.897   6.937  0.00  0.00    -0.064 C 
ATOM     27  C   UNL     1       8.107  21.164   8.209  0.00  0.00    +0.066 C 
ENDBRANCH  19  20
ENDBRANCH  18  19
ENDBRANCH  14  15
ENDBRANCH  12  13
TORSDOF 6
ENDMDL
MODEL 3
REMARK VINA RESULT:      -8.9      6.404      8.641
REMARK  Name = C:\Users\Docking\Desktop\test protocol\1iep_ligandH.pdb
REMARK  8 active torsions:
REMARK  status: ('A' for Active; 'I' for Inactive)
REMARK    1  A    between atoms: _5  and  _11
REMARK    2  A    between atoms: _19  and  _21
REMARK    3  A    between atoms: _22  and  _66
REMARK    4  A    between atoms: _27  and  _30
REMARK    5  A    between atoms: _32  and  _33
REMARK    6  A    between atoms: _38  and  _43
REMARK    7  A    between atoms: _43  and  _46
REMARK    8  A    between atoms: _53  and  _55
REMARK                            x       y       z     vdW  Elec       q    Type
REMARK                         _______ _______ _______ _____ _____    ______ ____
ROOT
ATOM     10  C   UNL     1       7.262  31.744  20.519  0.00  0.00    +0.038 A 
ATOM     11  C   UNL     1       6.191  31.492  21.414  0.00  0.00    +0.047 A 
ATOM     12  C   UNL     1       5.441  32.584  22.016  0.00  0.00    +0.035 A 
ATOM     32  C   UNL     1       5.808  33.920  21.682  0.00  0.00    +0.024 A 
ATOM     33  C   UNL     1       6.894  34.194  20.775  0.00  0.00    +0.007 A 
ATOM     34  C   UNL     1       7.639  33.122  20.180  0.00  0.00    -0.029 A 
ATOM     35  C   UNL     1       8.798  33.475  19.219  0.00  0.00    +0.045 C 
ENDROOT
BRANCH  10   9
ATOM      4  C   UNL     1       9.601  27.573  20.922  0.00  0.00    +0.077 A 
ATOM      5  C   UNL     1       9.469  27.569  22.350  0.00  0.00    +0.048 A 
ATOM      6  C   UNL     1       8.799  28.663  22.943  0.00  0.00    +0.116 A 
ATOM      7  N   UNL     1       8.301  29.678  22.156  0.00  0.00    -0.223 NA
ATOM      8  C   UNL     1       8.447  29.652  20.781  0.00  0.00    +0.220 A 
ATOM      9  N   UNL     1       7.948  30.659  19.969  0.00  0.00    -0.283 N 
ATOM     36  H   UNL     1       8.082  30.606  18.960  0.00  0.00    +0.155 HD
ATOM     37  N   UNL     1       9.085  28.619  20.191  0.00  0.00    -0.214 NA
BRANCH   4   3
ATOM      1  C   UNL     1      10.642  25.117  18.060  0.00  0.00    +0.020 A 
ATOM      2  C   UNL     1       9.955  26.177  18.762  0.00  0.00    +0.013 A 
ATOM      3  C   UNL     1      10.281  26.485  20.148  0.00  0.00    +0.019 A 
ATOM     38  C   UNL     1      11.315  25.697  20.801  0.00  0.00    +0.120 A 
ATOM     39  N   UNL     1      11.958  24.681  20.101  0.00  0.00    -0.263 NA
ATOM     40  C   UNL     1      11.652  24.374  18.766  0.00  0.00    +0.111 A 
ENDBRANCH   4   3
ENDBRANCH  10   9
BRANCH  12  13
ATOM     13  N   UNL     1       4.349  32.389  22.938  0.00  0.00    -0.281 N 
ATOM     14  C   UNL     1       4.124  33.038  24.141  0.00  0.00    +0.248 C 
ATOM     30  O   UNL     1       4.947  33.737  24.713  0.00  0.00    -0.270 OA
ATOM     31  H   UNL     1       3.658  31.688  22.671  0.00  0.00    +0.155 HD
BRANCH  14  15
ATOM     15  C   UNL     1       2.799  32.875  24.812  0.00  0.00    +0.037 A 
ATOM     16  C   UNL     1       2.215  33.955  25.612  0.00  0.00    +0.013 A 
ATOM     17  C   UNL     1       0.943  33.765  26.263  0.00  0.00    +0.005 A 
ATOM     18  C   UNL     1       0.246  32.489  26.116  0.00  0.00    -0.033 A 
ATOM     28  C   UNL     1       0.846  31.437  25.313  0.00  0.00    +0.005 A 
ATOM     29  C   UNL     1       2.093  31.619  24.674  0.00  0.00    +0.013 A 
BRANCH  18  19
ATOM     19  C   UNL     1      -1.105  32.192  26.793  0.00  0.00    +0.119 C 
BRANCH  19  20
ATOM     20  N   UNL     1      -1.345  30.792  27.254  0.00  0.00    -0.302 NA
ATOM     21  C   UNL     1      -2.836  30.447  27.293  0.00  0.00    +0.066 C 
ATOM     22  C   UNL     1      -3.068  28.972  27.756  0.00  0.00    -0.064 C 
ATOM     23  N   UNL     1      -2.429  28.766  29.130  0.00  0.00    +0.379 N 
ATOM     24  C   UNL     1      -2.695  27.396  29.595  0.00  0.00    -0.096 C 
ATOM     25  H   UNL     1      -2.924  29.466  29.842  0.00  0.00    -0.082 HD
ATOM     26  C   UNL     1      -0.946  29.109  29.102  0.00  0.00    -0.064 C 
ATOM     27  C   UNL     1      -0.726  30.567  28.612  0.00  0.00    +0.066 C 
ENDBRANCH  19  20
ENDBRANCH  18  19
ENDBRANCH  14  15
ENDBRANCH  12  13
TORSDOF 6
ENDMDL
MODEL 4
REMARK VINA RESULT:      -8.9      1.795      2.362
REMARK  Name = C:\Users\Docking\Desktop\test protocol\1iep_ligandH.pdb
REMARK  8 active torsions:
REMARK  status: ('A' for Active; 'I' for Inactive)
REMARK    1  A    between atoms: _5  and  _11
REMARK    2  A    between atoms: _19  and  _21
REMARK    3  A    between atoms: _22  and  _66
REMARK    4  A    between atoms: _27  and  _30
REMARK    5  A    between atoms: _32  and  _33
REMARK    6  A    between atoms: _38  and  _43
REMARK    7  A    between atoms: _43  and  _46
REMARK    8  A    between atoms: _53  and  _55
REMARK                            x       y       z     vdW  Elec       q    Type
REMARK                         _______ _______ _______ _____ _____    ______ ____
ROOT
ATOM     10  C   UNL     1       9.610  26.897  21.463  0.00  0.00    +0.038 A 
ATOM     11  C   UNL     1       8.976  28.122  21.131  0.00  0.00    +0.047 A 
ATOM     12  C   UNL     1       8.537  29.045  22.165  0.00  0.00    +0.035 A 
ATOM     32  C   UNL     1       8.762  28.692  23.528  0.00  0.00    +0.024 A 
ATOM     33  C   UNL     1       9.404  27.450  23.882  0.00  0.00    +0.007 A 
ATOM     34  C   UNL     1       9.837  26.534  22.867  0.00  0.00    -0.029 A 
ATOM     35  C   UNL     1      10.515  25.215  23.306  0.00  0.00    +0.045 C 
ENDROOT
BRANCH  10   9
ATOM      4  C   UNL     1       8.743  23.446  18.242  0.00  0.00    +0.077 A 
ATOM      5  C   UNL     1       7.382  23.304  18.672  0.00  0.00    +0.048 A 
ATOM      6  C   UNL     1       6.946  24.134  19.730  0.00  0.00    +0.116 A 
ATOM      7  N   UNL     1       7.816  25.034  20.307  0.00  0.00    -0.223 NA
ATOM      8  C   UNL     1       9.123  25.144  19.869  0.00  0.00    +0.220 A 
ATOM      9  N   UNL     1      10.012  26.047  20.430  0.00  0.00    -0.283 N 
ATOM     36  H   UNL     1      10.970  26.093  20.083  0.00  0.00    +0.155 HD
ATOM     37  N   UNL     1       9.564  24.362  18.862  0.00  0.00    -0.214 NA
BRANCH   4   3
ATOM      1  C   UNL     1      11.309  21.552  15.977  0.00  0.00    +0.020 A 
ATOM      2  C   UNL     1      10.773  22.332  17.069  0.00  0.00    +0.013 A 
ATOM      3  C   UNL     1       9.351  22.643  17.134  0.00  0.00    +0.019 A 
ATOM     38  C   UNL     1       8.491  22.145  16.071  0.00  0.00    +0.120 A 
ATOM     39  N   UNL     1       9.036  21.397  15.031  0.00  0.00    -0.263 NA
ATOM     40  C   UNL     1      10.403  21.094  14.957  0.00  0.00    +0.111 A 
ENDBRANCH   4   3
ENDBRANCH  10   9
BRANCH  12  13
ATOM     13  N   UNL     1       7.880  30.299  21.889  0.00  0.00    -0.281 N 
ATOM     14  C   UNL     1       7.918  31.041  20.720  0.00  0.00    +0.248 C 
ATOM     30  O   UNL     1       8.700  30.844  19.802  0.00  0.00    -0.270 OA
ATOM     31  H   UNL     1       7.319  30.687  22.648  0.00  0.00    +0.155 HD
BRANCH  14  15
ATOM     15  C   UNL     1       6.958  32.175  20.553  0.00  0.00    +0.037 A 
ATOM     16  C   UNL     1       7.179  33.214  19.544  0.00  0.00    +0.013 A 
ATOM     17  C   UNL     1       6.246  34.306  19.415  0.00  0.00    +0.005 A 
ATOM     18  C   UNL     1       5.084  34.363  20.298  0.00  0.00    -0.033 A 
ATOM     28  C   UNL     1       4.887  33.316  21.286  0.00  0.00    +0.005 A 
ATOM     29  C   UNL     1       5.799  32.244  21.416  0.00  0.00    +0.013 A 
BRANCH  18  19
ATOM     19  C   UNL     1       4.049  35.502  20.245  0.00  0.00    +0.119 C 
BRANCH  19  20
ATOM     20  N   UNL     1       4.263  36.663  21.160  0.00  0.00    -0.302 NA
ATOM     21  C   UNL     1       3.089  36.859  22.124  0.00  0.00    +0.066 C 
ATOM     22  C   UNL     1       3.339  38.064  23.088  0.00  0.00    -0.064 C 
ATOM     23  N   UNL     1       3.582  39.330  22.266  0.00  0.00    +0.379 N 
ATOM     24  C   UNL     1       3.760  40.476  23.170  0.00  0.00    -0.096 C 
ATOM     25  H   UNL     1       2.667  39.519  21.657  0.00  0.00    -0.082 HD
ATOM     26  C   UNL     1       4.746  39.143  21.303  0.00  0.00    -0.064 C 
ATOM     27  C   UNL     1       4.500  37.926  20.368  0.00  0.00    +0.066 C 
ENDBRANCH  19  20
ENDBRANCH  18  19
ENDBRANCH  14  15
ENDBRANCH  12  13
TORSDOF 6
ENDMDL
MODEL 5
REMARK VINA RESULT:      -8.9      4.470     13.076
REMARK  Name = C:\Users\Docking\Desktop\test protocol\1iep_ligandH.pdb
REMARK  8 active torsions:
REMARK  status: ('A' for Active; 'I' for Inactive)
REMARK    1  A    between atoms: _5  and  _11
REMARK    2  A    between atoms: _19  and  _21
REMARK    3  A    between atoms: _22  and  _66
REMARK    4  A    between atoms: _27  and  _30
REMARK    5  A    between atoms: _32  and  _33
REMARK    6  A    between atoms: _38  and  _43
REMARK    7  A    between atoms: _43  and  _46
REMARK    8  A    between atoms: _53  and  _55
REMARK                            x       y       z     vdW  Elec       q    Type
REMARK                         _______ _______ _______ _____ _____    ______ ____
ROOT
ATOM     10  C   UNL     1       9.292  25.666  19.130  0.00  0.00    +0.038 A 
ATOM     11  C   UNL     1      10.604  25.457  18.634  0.00  0.00    +0.047 A 
ATOM     12  C   UNL     1      11.218  24.138  18.662  0.00  0.00    +0.035 A 
ATOM     32  C   UNL     1      10.466  23.054  19.200  0.00  0.00    +0.024 A 
ATOM     33  C   UNL     1       9.131  23.249  19.710  0.00  0.00    +0.007 A 
ATOM     34  C   UNL     1       8.521  24.547  19.687  0.00  0.00    -0.029 A 
ATOM     35  C   UNL     1       7.090  24.699  20.253  0.00  0.00    +0.045 C 
ENDROOT
BRANCH  10   9
ATOM      4  C   UNL     1       8.126  29.852  21.168  0.00  0.00    +0.077 A 
ATOM      5  C   UNL     1       8.611  29.430  22.451  0.00  0.00    +0.048 A 
ATOM      6  C   UNL     1       9.146  28.125  22.545  0.00  0.00    +0.116 A 
ATOM      7  N   UNL     1       9.189  27.313  21.433  0.00  0.00    -0.223 NA
ATOM      8  C   UNL     1       8.711  27.750  20.211  0.00  0.00    +0.220 A 
ATOM      9  N   UNL     1       8.751  26.952  19.078  0.00  0.00    -0.283 N 
ATOM     36  H   UNL     1       8.382  27.309  18.197  0.00  0.00    +0.155 HD
ATOM     37  N   UNL     1       8.194  28.991  20.095  0.00  0.00    -0.214 NA
BRANCH   4   3
ATOM      1  C   UNL     1       5.901  33.060  21.399  0.00  0.00    +0.020 A 
ATOM      2  C   UNL     1       6.435  31.750  21.691  0.00  0.00    +0.013 A 
ATOM      3  C   UNL     1       7.535  31.202  20.908  0.00  0.00    +0.019 A 
ATOM     38  C   UNL     1       8.077  32.013  19.828  0.00  0.00    +0.120 A 
ATOM     39  N   UNL     1       7.542  33.271  19.569  0.00  0.00    -0.263 NA
ATOM     40  C   UNL     1       6.482  33.807  20.314  0.00  0.00    +0.111 A 
ENDBRANCH   4   3
ENDBRANCH  10   9
BRANCH  12  13
ATOM     13  N   UNL     1      12.550  23.867  18.180  0.00  0.00    -0.281 N 
ATOM     14  C   UNL     1      12.918  23.162  17.046  0.00  0.00    +0.248 C 
ATOM     30  O   UNL     1      12.158  22.471  16.385  0.00  0.00    -0.270 OA
ATOM     31  H   UNL     1      13.314  24.241  18.743  0.00  0.00    +0.155 HD
BRANCH  14  15
ATOM     15  C   UNL     1      14.340  23.221  16.588  0.00  0.00    +0.037 A 
ATOM     16  C   UNL     1      15.408  23.677  17.483  0.00  0.00    +0.013 A 
ATOM     17  C   UNL     1      16.768  23.741  17.011  0.00  0.00    +0.005 A 
ATOM     18  C   UNL     1      17.069  23.346  15.636  0.00  0.00    -0.033 A 
ATOM     28  C   UNL     1      15.991  22.893  14.772  0.00  0.00    +0.005 A 
ATOM     29  C   UNL     1      14.656  22.830  15.231  0.00  0.00    +0.013 A 
BRANCH  18  19
ATOM     19  C   UNL     1      18.488  23.403  15.042  0.00  0.00    +0.119 C 
BRANCH  19  20
ATOM     20  N   UNL     1      19.230  24.693  15.164  0.00  0.00    -0.302 NA
ATOM     21  C   UNL     1      18.507  25.841  14.453  0.00  0.00    +0.066 C 
ATOM     22  C   UNL     1      19.285  27.188  14.610  0.00  0.00    -0.064 C 
ATOM     23  N   UNL     1      20.704  27.021  14.063  0.00  0.00    +0.379 N 
ATOM     24  C   UNL     1      21.419  28.301  14.156  0.00  0.00    -0.096 C 
ATOM     25  H   UNL     1      20.621  26.757  12.983  0.00  0.00    -0.082 HD
ATOM     26  C   UNL     1      21.429  25.880  14.763  0.00  0.00    -0.064 C 
ATOM     27  C   UNL     1      20.633  24.552  14.626  0.00  0.00    +0.066 C 
ENDBRANCH  19  20
ENDBRANCH  18  19
ENDBRANCH  14  15
ENDBRANCH  12  13
TORSDOF 6
ENDMDL
