MODEL 1
REMARK VINA RESULT:      -8.8      0.000      0.000
REMARK  Name = C:\Users\Docking\Desktop\test protocol\1iep_ligandH.pdb
REMARK  8 active torsions:
REMARK  status: ('A' for Active; 'I' for Inactive)
REMARK    1  A    between atoms: _5  and  _11
REMARK    2  A    between atoms: _19  and  _21
REMARK    3  A    between atoms: _22  and  _66
REMARK    4  A    between atoms: _27  and  _30
REMARK    5  A    between atoms: _32  and  _33
REMARK    6  A    between atoms: _38  and  _43
REMARK    7  A    between atoms: _43  and  _46
REMARK    8  A    between atoms: _53  and  _55
REMARK                            x       y       z     vdW  Elec       q    Type
REMARK                         _______ _______ _______ _____ _____    ______ ____
ROOT
ATOM     10  C   UNL     1      19.941  25.510   4.028  0.00  0.00    +0.038 A 
ATOM     11  C   UNL     1      18.754  25.289   4.773  0.00  0.00    +0.047 A 
ATOM     12  C   UNL     1      18.133  23.975   4.827  0.00  0.00    +0.035 A 
ATOM     32  C   UNL     1      18.749  22.907   4.111  0.00  0.00    +0.024 A 
ATOM     33  C   UNL     1      19.954  23.114   3.348  0.00  0.00    +0.007 A 
ATOM     34  C   UNL     1      20.570  24.409   3.289  0.00  0.00    -0.029 A 
ATOM     35  C   UNL     1      21.859  24.574   2.450  0.00  0.00    +0.045 C 
ENDROOT
BRANCH  10   9
ATOM      4  C   UNL     1      20.982  29.642   1.819  0.00  0.00    +0.077 A 
ATOM      5  C   UNL     1      20.397  29.199   0.586  0.00  0.00    +0.048 A 
ATOM      6  C   UNL     1      19.846  27.898   0.560  0.00  0.00    +0.116 A 
ATOM      7  N   UNL     1      19.881  27.109   1.689  0.00  0.00    -0.223 NA
ATOM      8  C   UNL     1      20.455  27.566   2.861  0.00  0.00    +0.220 A 
ATOM      9  N   UNL     1      20.495  26.792   4.011  0.00  0.00    -0.283 N 
ATOM     36  H   UNL     1      20.933  27.163   4.853  0.00  0.00    +0.155 HD
ATOM     37  N   UNL     1      20.990  28.804   2.911  0.00  0.00    -0.214 NA
BRANCH   4   3
ATOM      1  C   UNL     1      22.966  32.956   1.200  0.00  0.00    +0.020 A 
ATOM      2  C   UNL     1      22.389  31.652   0.970  0.00  0.00    +0.013 A 
ATOM      3  C   UNL     1      21.603  30.992   2.004  0.00  0.00    +0.019 A 
ATOM     38  C   UNL     1      21.417  31.685   3.271  0.00  0.00    +0.120 A 
ATOM     39  N   UNL     1      21.986  32.939   3.464  0.00  0.00    -0.263 NA
ATOM     40  C   UNL     1      22.746  33.583   2.476  0.00  0.00    +0.111 A 
ENDBRANCH   4   3
ENDBRANCH  10   9
BRANCH  12  13
ATOM     13  N   UNL     1      16.924  23.693   5.560  0.00  0.00    -0.281 N 
ATOM     14  C   UNL     1      16.757  22.821   6.624  0.00  0.00    +0.248 C 
ATOM     30  O   UNL     1      17.581  21.989   6.971  0.00  0.00    -0.270 OA
ATOM     31  H   UNL     1      16.090  24.196   5.258  0.00  0.00    +0.155 HD
BRANCH  14  15
ATOM     15  C   UNL     1      15.485  22.873   7.407  0.00  0.00    +0.037 A 
ATOM     16  C   UNL     1      14.229  23.305   6.788  0.00  0.00    +0.013 A 
ATOM     17  C   UNL     1      13.020  23.362   7.570  0.00  0.00    +0.005 A 
ATOM     18  C   UNL     1      13.061  22.984   8.981  0.00  0.00    -0.033 A 
ATOM     28  C   UNL     1      14.319  22.555   9.568  0.00  0.00    +0.005 A 
ATOM     29  C   UNL     1      15.507  22.498   8.805  0.00  0.00    +0.013 A 
BRANCH  18  19
ATOM     19  C   UNL     1      11.823  23.035   9.896  0.00  0.00    +0.119 C 
BRANCH  19  20
ATOM     20  N   UNL     1      11.139  21.741  10.193  0.00  0.00    -0.302 NA
ATOM     21  C   UNL     1      10.180  21.328   9.073  0.00  0.00    +0.066 C 
ATOM     22  C   UNL     1       9.490  19.961   9.390  0.00  0.00    -0.064 C 
ATOM     23  N   UNL     1       8.751  20.063  10.725  0.00  0.00    +0.379 N 
ATOM     24  C   UNL     1       8.053  18.799  10.998  0.00  0.00    -0.096 C 
ATOM     25  H   UNL     1       7.979  20.861  10.623  0.00  0.00    -0.082 HD
ATOM     26  C   UNL     1       9.696  20.477  11.844  0.00  0.00    -0.064 C 
ATOM     27  C   UNL     1      10.399  21.821  11.506  0.00  0.00    +0.066 C 
ENDBRANCH  19  20
ENDBRANCH  18  19
ENDBRANCH  14  15
ENDBRANCH  12  13
TORSDOF 6
ENDMDL
MODEL 2
REMARK VINA RESULT:      -8.5      2.266     14.447
REMARK  Name = C:\Users\Docking\Desktop\test protocol\1iep_ligandH.pdb
REMARK  8 active torsions:
REMARK  status: ('A' for Active; 'I' for Inactive)
REMARK    1  A    between atoms: _5  and  _11
REMARK    2  A    between atoms: _19  and  _21
REMARK    3  A    between atoms: _22  and  _66
REMARK    4  A    between atoms: _27  and  _30
REMARK    5  A    between atoms: _32  and  _33
REMARK    6  A    between atoms: _38  and  _43
REMARK    7  A    between atoms: _43  and  _46
REMARK    8  A    between atoms: _53  and  _55
REMARK                            x       y       z     vdW  Elec       q    Type
REMARK                         _______ _______ _______ _____ _____    ______ ____
ROOT
ATOM     10  C   UNL     1      11.969  22.654  10.336  0.00  0.00    +0.038 A 
ATOM     11  C   UNL     1      13.041  22.562   9.412  0.00  0.00    +0.047 A 
ATOM     12  C   UNL     1      13.380  23.676   8.540  0.00  0.00    +0.035 A 
ATOM     32  C   UNL     1      12.607  24.869   8.637  0.00  0.00    +0.024 A 
ATOM     33  C   UNL     1      11.513  24.979   9.569  0.00  0.00    +0.007 A 
ATOM     34  C   UNL     1      11.173  23.883  10.431  0.00  0.00    -0.029 A 
ATOM     35  C   UNL     1       9.986  24.055  11.407  0.00  0.00    +0.045 C 
ENDROOT
BRANCH  10   9
ATOM      4  C   UNL     1       9.516  18.655  11.349  0.00  0.00    +0.077 A 
ATOM      5  C   UNL     1       8.708  18.781  10.170  0.00  0.00    +0.048 A 
ATOM      6  C   UNL     1       8.950  19.894   9.334  0.00  0.00    +0.116 A 
ATOM      7  N   UNL     1       9.931  20.805   9.661  0.00  0.00    -0.223 NA
ATOM      8  C   UNL     1      10.691  20.654  10.806  0.00  0.00    +0.220 A 
ATOM      9  N   UNL     1      11.688  21.554  11.150  0.00  0.00    -0.283 N 
ATOM     36  H   UNL     1      12.222  21.412  12.007  0.00  0.00    +0.155 HD
ATOM     37  N   UNL     1      10.478  19.601  11.622  0.00  0.00    -0.214 NA
BRANCH   4   3
ATOM      1  C   UNL     1       9.916  16.401  14.521  0.00  0.00    +0.020 A 
ATOM      2  C   UNL     1      10.081  17.509  13.609  0.00  0.00    +0.013 A 
ATOM      3  C   UNL     1       9.382  17.532  12.330  0.00  0.00    +0.019 A 
ATOM     38  C   UNL     1       8.516  16.409  12.002  0.00  0.00    +0.120 A 
ATOM     39  N   UNL     1       8.378  15.355  12.900  0.00  0.00    -0.263 NA
ATOM     40  C   UNL     1       9.047  15.322  14.133  0.00  0.00    +0.111 A 
ENDBRANCH   4   3
ENDBRANCH  10   9
BRANCH  12  13
ATOM     13  N   UNL     1      14.452  23.638   7.576  0.00  0.00    -0.281 N 
ATOM     14  C   UNL     1      14.454  23.038   6.328  0.00  0.00    +0.248 C 
ATOM     30  O   UNL     1      13.602  22.256   5.935  0.00  0.00    -0.270 OA
ATOM     31  H   UNL     1      15.314  24.111   7.848  0.00  0.00    +0.155 HD
BRANCH  14  15
ATOM     15  C   UNL     1      15.573  23.340   5.384  0.00  0.00    +0.037 A 
ATOM     16  C   UNL     1      15.311  23.776   4.009  0.00  0.00    +0.013 A 
ATOM     17  C   UNL     1      16.409  24.044   3.114  0.00  0.00    +0.005 A 
ATOM     18  C   UNL     1      17.780  23.879   3.592  0.00  0.00    -0.033 A 
ATOM     28  C   UNL     1      18.011  23.451   4.962  0.00  0.00    +0.005 A 
ATOM     29  C   UNL     1      16.937  23.186   5.842  0.00  0.00    +0.013 A 
BRANCH  18  19
ATOM     19  C   UNL     1      19.011  24.122   2.700  0.00  0.00    +0.119 C 
BRANCH  19  20
ATOM     20  N   UNL     1      19.176  25.488   2.119  0.00  0.00    -0.302 NA
ATOM     21  C   UNL     1      20.461  25.611   1.296  0.00  0.00    +0.066 C 
ATOM     22  C   UNL     1      20.605  27.040   0.677  0.00  0.00    -0.064 C 
ATOM     23  N   UNL     1      20.576  28.083   1.796  0.00  0.00    +0.379 N 
ATOM     24  C   UNL     1      20.770  29.423   1.223  0.00  0.00    -0.096 C 
ATOM     25  H   UNL     1      21.438  27.876   2.473  0.00  0.00    -0.082 HD
ATOM     26  C   UNL     1      19.303  27.965   2.621  0.00  0.00    -0.064 C 
ATOM     27  C   UNL     1      19.154  26.533   3.207  0.00  0.00    +0.066 C 
ENDBRANCH  19  20
ENDBRANCH  18  19
ENDBRANCH  14  15
ENDBRANCH  12  13
TORSDOF 6
ENDMDL
MODEL 3
REMARK VINA RESULT:      -8.5      3.849     12.486
REMARK  Name = C:\Users\Docking\Desktop\test protocol\1iep_ligandH.pdb
REMARK  8 active torsions:
REMARK  status: ('A' for Active; 'I' for Inactive)
REMARK    1  A    between atoms: _5  and  _11
REMARK    2  A    between atoms: _19  and  _21
REMARK    3  A    between atoms: _22  and  _66
REMARK    4  A    between atoms: _27  and  _30
REMARK    5  A    between atoms: _32  and  _33
REMARK    6  A    between atoms: _38  and  _43
REMARK    7  A    between atoms: _43  and  _46
REMARK    8  A    between atoms: _53  and  _55
REMARK                            x       y       z     vdW  Elec       q    Type
REMARK                         _______ _______ _______ _____ _____    ______ ____
ROOT
ATOM     10  C   UNL     1      12.043  23.334   8.448  0.00  0.00    +0.038 A 
ATOM     11  C   UNL     1      13.227  23.548   7.697  0.00  0.00    +0.047 A 
ATOM     12  C   UNL     1      14.534  23.215   8.243  0.00  0.00    +0.035 A 
ATOM     32  C   UNL     1      14.598  22.664   9.556  0.00  0.00    +0.024 A 
ATOM     33  C   UNL     1      13.404  22.441  10.333  0.00  0.00    +0.007 A 
ATOM     34  C   UNL     1      12.113  22.770   9.801  0.00  0.00    -0.029 A 
ATOM     35  C   UNL     1      10.867  22.515  10.682  0.00  0.00    +0.045 C 
ENDROOT
BRANCH  10   9
ATOM      4  C   UNL     1       8.500  26.447   7.559  0.00  0.00    +0.077 A 
ATOM      5  C   UNL     1       9.136  27.481   8.322  0.00  0.00    +0.048 A 
ATOM      6  C   UNL     1      10.371  27.169   8.934  0.00  0.00    +0.116 A 
ATOM      7  N   UNL     1      10.919  25.913   8.786  0.00  0.00    -0.223 NA
ATOM      8  C   UNL     1      10.278  24.938   8.044  0.00  0.00    +0.220 A 
ATOM      9  N   UNL     1      10.815  23.671   7.875  0.00  0.00    -0.283 N 
ATOM     36  H   UNL     1      10.307  22.978   7.326  0.00  0.00    +0.155 HD
ATOM     37  N   UNL     1       9.097  25.211   7.451  0.00  0.00    -0.214 NA
BRANCH   4   3
ATOM      1  C   UNL     1       4.693  26.961   6.820  0.00  0.00    +0.020 A 
ATOM      2  C   UNL     1       5.927  26.793   7.553  0.00  0.00    +0.013 A 
ATOM      3  C   UNL     1       7.193  26.624   6.850  0.00  0.00    +0.019 A 
ATOM     38  C   UNL     1       7.175  26.631   5.395  0.00  0.00    +0.120 A 
ATOM     39  N   UNL     1       5.971  26.793   4.717  0.00  0.00    -0.263 NA
ATOM     40  C   UNL     1       4.747  26.955   5.382  0.00  0.00    +0.111 A 
ENDBRANCH   4   3
ENDBRANCH  10   9
BRANCH  12  13
ATOM     13  N   UNL     1      15.772  23.417   7.531  0.00  0.00    -0.281 N 
ATOM     14  C   UNL     1      16.478  22.498   6.773  0.00  0.00    +0.248 C 
ATOM     30  O   UNL     1      16.263  21.295   6.768  0.00  0.00    -0.270 OA
ATOM     31  H   UNL     1      16.176  24.352   7.592  0.00  0.00    +0.155 HD
BRANCH  14  15
ATOM     15  C   UNL     1      17.596  22.982   5.907  0.00  0.00    +0.037 A 
ATOM     16  C   UNL     1      18.888  22.292   5.876  0.00  0.00    +0.013 A 
ATOM     17  C   UNL     1      19.954  22.790   5.044  0.00  0.00    +0.005 A 
ATOM     18  C   UNL     1      19.732  23.986   4.235  0.00  0.00    -0.033 A 
ATOM     28  C   UNL     1      18.439  24.648   4.281  0.00  0.00    +0.005 A 
ATOM     29  C   UNL     1      17.392  24.163   5.095  0.00  0.00    +0.013 A 
BRANCH  18  19
ATOM     19  C   UNL     1      20.821  24.601   3.335  0.00  0.00    +0.119 C 
BRANCH  19  20
ATOM     20  N   UNL     1      20.400  25.684   2.397  0.00  0.00    -0.302 NA
ATOM     21  C   UNL     1      20.468  25.236   0.934  0.00  0.00    +0.066 C 
ATOM     22  C   UNL     1      20.004  26.374  -0.032  0.00  0.00    -0.064 C 
ATOM     23  N   UNL     1      20.868  27.615   0.194  0.00  0.00    +0.379 N 
ATOM     24  C   UNL     1      20.472  28.668  -0.753  0.00  0.00    -0.096 C 
ATOM     25  H   UNL     1      21.924  27.338  -0.031  0.00  0.00    -0.082 HD
ATOM     26  C   UNL     1      20.809  28.066   1.647  0.00  0.00    -0.064 C 
ATOM     27  C   UNL     1      21.244  26.919   2.600  0.00  0.00    +0.066 C 
ENDBRANCH  19  20
ENDBRANCH  18  19
ENDBRANCH  14  15
ENDBRANCH  12  13
TORSDOF 6
ENDMDL
MODEL 4
REMARK VINA RESULT:      -8.4      4.187     12.546
REMARK  Name = C:\Users\Docking\Desktop\test protocol\1iep_ligandH.pdb
REMARK  8 active torsions:
REMARK  status: ('A' for Active; 'I' for Inactive)
REMARK    1  A    between atoms: _5  and  _11
REMARK    2  A    between atoms: _19  and  _21
REMARK    3  A    between atoms: _22  and  _66
REMARK    4  A    between atoms: _27  and  _30
REMARK    5  A    between atoms: _32  and  _33
REMARK    6  A    between atoms: _38  and  _43
REMARK    7  A    between atoms: _43  and  _46
REMARK    8  A    between atoms: _53  and  _55
REMARK                            x       y       z     vdW  Elec       q    Type
REMARK                         _______ _______ _______ _____ _____    ______ ____
ROOT
ATOM     10  C   UNL     1      12.492  23.073   8.230  0.00  0.00    +0.038 A 
ATOM     11  C   UNL     1      13.684  23.337   7.509  0.00  0.00    +0.047 A 
ATOM     12  C   UNL     1      14.985  22.962   8.041  0.00  0.00    +0.035 A 
ATOM     32  C   UNL     1      15.034  22.318   9.312  0.00  0.00    +0.024 A 
ATOM     33  C   UNL     1      13.832  22.043  10.060  0.00  0.00    +0.007 A 
ATOM     34  C   UNL     1      12.546  22.413   9.540  0.00  0.00    -0.029 A 
ATOM     35  C   UNL     1      11.292  22.100  10.388  0.00  0.00    +0.045 C 
ENDROOT
BRANCH  10   9
ATOM      4  C   UNL     1       8.921  26.219   7.604  0.00  0.00    +0.077 A 
ATOM      5  C   UNL     1       9.528  27.173   8.487  0.00  0.00    +0.048 A 
ATOM      6  C   UNL     1      10.755  26.813   9.088  0.00  0.00    +0.116 A 
ATOM      7  N   UNL     1      11.324  25.587   8.818  0.00  0.00    -0.223 NA
ATOM      8  C   UNL     1      10.712  24.689   7.963  0.00  0.00    +0.220 A 
ATOM      9  N   UNL     1      11.270  23.455   7.671  0.00  0.00    -0.283 N 
ATOM     36  H   UNL     1      10.783  22.817   7.041  0.00  0.00    +0.155 HD
ATOM     37  N   UNL     1       9.539  25.009   7.378  0.00  0.00    -0.214 NA
BRANCH   4   3
ATOM      1  C   UNL     1       5.154  26.957   6.853  0.00  0.00    +0.020 A 
ATOM      2  C   UNL     1       6.377  26.737   7.589  0.00  0.00    +0.013 A 
ATOM      3  C   UNL     1       7.626  26.455   6.892  0.00  0.00    +0.019 A 
ATOM     38  C   UNL     1       7.602  26.404   5.437  0.00  0.00    +0.120 A 
ATOM     39  N   UNL     1       6.408  26.619   4.756  0.00  0.00    -0.263 NA
ATOM     40  C   UNL     1       5.201  26.890   5.416  0.00  0.00    +0.111 A 
ENDBRANCH   4   3
ENDBRANCH  10   9
BRANCH  12  13
ATOM     13  N   UNL     1      16.229  23.211   7.358  0.00  0.00    -0.281 N 
ATOM     14  C   UNL     1      16.763  22.522   6.281  0.00  0.00    +0.248 C 
ATOM     30  O   UNL     1      16.348  21.446   5.875  0.00  0.00    -0.270 OA
ATOM     31  H   UNL     1      16.785  23.990   7.711  0.00  0.00    +0.155 HD
BRANCH  14  15
ATOM     15  C   UNL     1      17.935  23.104   5.560  0.00  0.00    +0.037 A 
ATOM     16  C   UNL     1      17.820  24.358   4.811  0.00  0.00    +0.013 A 
ATOM     17  C   UNL     1      18.962  24.890   4.110  0.00  0.00    +0.005 A 
ATOM     18  C   UNL     1      20.230  24.166   4.155  0.00  0.00    -0.033 A 
ATOM     28  C   UNL     1      20.318  22.927   4.910  0.00  0.00    +0.005 A 
ATOM     29  C   UNL     1      19.200  22.403   5.597  0.00  0.00    +0.013 A 
BRANCH  18  19
ATOM     19  C   UNL     1      21.494  24.648   3.419  0.00  0.00    +0.119 C 
BRANCH  19  20
ATOM     20  N   UNL     1      22.462  23.604   2.968  0.00  0.00    -0.302 NA
ATOM     21  C   UNL     1      23.910  24.100   3.025  0.00  0.00    +0.066 C 
ATOM     22  C   UNL     1      24.911  22.988   2.571  0.00  0.00    -0.064 C 
ATOM     23  N   UNL     1      24.551  22.528   1.157  0.00  0.00    +0.379 N 
ATOM     24  C   UNL     1      25.525  21.524   0.705  0.00  0.00    -0.096 C 
ATOM     25  H   UNL     1      24.637  23.411   0.482  0.00  0.00    -0.082 HD
ATOM     26  C   UNL     1      23.112  22.036   1.091  0.00  0.00    -0.064 C 
ATOM     27  C   UNL     1      22.128  23.138   1.572  0.00  0.00    +0.066 C 
ENDBRANCH  19  20
ENDBRANCH  18  19
ENDBRANCH  14  15
ENDBRANCH  12  13
TORSDOF 6
ENDMDL
MODEL 5
REMARK VINA RESULT:      -8.4      2.251      3.000
REMARK  Name = C:\Users\Docking\Desktop\test protocol\1iep_ligandH.pdb
REMARK  8 active torsions:
REMARK  status: ('A' for Active; 'I' for Inactive)
REMARK    1  A    between atoms: _5  and  _11
REMARK    2  A    between atoms: _19  and  _21
REMARK    3  A    between atoms: _22  and  _66
REMARK    4  A    between atoms: _27  and  _30
REMARK    5  A    between atoms: _32  and  _33
REMARK    6  A    between atoms: _38  and  _43
REMARK    7  A    between atoms: _43  and  _46
REMARK    8  A    between atoms: _53  and  _55
REMARK                            x       y       z     vdW  Elec       q    Type
REMARK                         _______ _______ _______ _____ _____    ______ ____
ROOT
ATOM     10  C   UNL     1      20.286  25.474   4.004  0.00  0.00    +0.038 A 
ATOM     11  C   UNL     1      18.978  25.250   4.505  0.00  0.00    +0.047 A 
ATOM     12  C   UNL     1      18.397  23.917   4.523  0.00  0.00    +0.035 A 
ATOM     32  C   UNL     1      19.178  22.833   4.025  0.00  0.00    +0.024 A 
ATOM     33  C   UNL     1      20.509  23.043   3.512  0.00  0.00    +0.007 A 
ATOM     34  C   UNL     1      21.086  24.357   3.489  0.00  0.00    -0.029 A 
ATOM     35  C   UNL     1      22.515  24.524   2.921  0.00  0.00    +0.045 C 
ENDROOT
BRANCH  10   9
ATOM      4  C   UNL     1      21.136  29.697   1.886  0.00  0.00    +0.077 A 
ATOM      5  C   UNL     1      20.542  29.265   0.654  0.00  0.00    +0.048 A 
ATOM      6  C   UNL     1      20.035  27.947   0.604  0.00  0.00    +0.116 A 
ATOM      7  N   UNL     1      20.122  27.130   1.711  0.00  0.00    -0.223 NA
ATOM      8  C   UNL     1      20.703  27.577   2.883  0.00  0.00    +0.220 A 
ATOM      9  N   UNL     1      20.794  26.775   4.010  0.00  0.00    -0.283 N 
ATOM     36  H   UNL     1      21.237  27.139   4.854  0.00  0.00    +0.155 HD
ATOM     37  N   UNL     1      21.195  28.831   2.956  0.00  0.00    -0.214 NA
BRANCH   4   3
ATOM      1  C   UNL     1      22.168  33.105   3.504  0.00  0.00    +0.020 A 
ATOM      2  C   UNL     1      21.592  31.789   3.354  0.00  0.00    +0.013 A 
ATOM      3  C   UNL     1      21.713  31.062   2.096  0.00  0.00    +0.019 A 
ATOM     38  C   UNL     1      22.428  31.701   1.001  0.00  0.00    +0.120 A 
ATOM     39  N   UNL     1      22.971  32.971   1.175  0.00  0.00    -0.263 NA
ATOM     40  C   UNL     1      22.860  33.680   2.380  0.00  0.00    +0.111 A 
ENDBRANCH   4   3
ENDBRANCH  10   9
BRANCH  12  13
ATOM     13  N   UNL     1      17.071  23.630   5.012  0.00  0.00    -0.281 N 
ATOM     14  C   UNL     1      16.717  22.920   6.147  0.00  0.00    +0.248 C 
ATOM     30  O   UNL     1      17.489  22.238   6.805  0.00  0.00    -0.270 OA
ATOM     31  H   UNL     1      16.300  23.994   4.452  0.00  0.00    +0.155 HD
BRANCH  14  15
ATOM     15  C   UNL     1      15.297  22.963   6.612  0.00  0.00    +0.037 A 
ATOM     16  C   UNL     1      14.190  22.665   5.700  0.00  0.00    +0.013 A 
ATOM     17  C   UNL     1      12.829  22.730   6.170  0.00  0.00    +0.005 A 
ATOM     18  C   UNL     1      12.568  23.093   7.561  0.00  0.00    -0.033 A 
ATOM     28  C   UNL     1      13.685  23.379   8.445  0.00  0.00    +0.005 A 
ATOM     29  C   UNL     1      15.021  23.318   7.988  0.00  0.00    +0.013 A 
BRANCH  18  19
ATOM     19  C   UNL     1      11.146  23.208   8.142  0.00  0.00    +0.119 C 
BRANCH  19  20
ATOM     20  N   UNL     1      10.387  24.461   7.851  0.00  0.00    -0.302 NA
ATOM     21  C   UNL     1       9.419  24.822   8.981  0.00  0.00    +0.066 C 
ATOM     22  C   UNL     1       8.650  26.147   8.671  0.00  0.00    -0.064 C 
ATOM     23  N   UNL     1       7.903  26.000   7.344  0.00  0.00    +0.379 N 
ATOM     24  C   UNL     1       7.132  27.223   7.077  0.00  0.00    -0.096 C 
ATOM     25  H   UNL     1       7.178  25.160   7.455  0.00  0.00    -0.082 HD
ATOM     26  C   UNL     1       8.857  25.638   6.215  0.00  0.00    -0.064 C 
ATOM     27  C   UNL     1       9.638  24.336   6.547  0.00  0.00    +0.066 C 
ENDBRANCH  19  20
ENDBRANCH  18  19
ENDBRANCH  14  15
ENDBRANCH  12  13
TORSDOF 6
ENDMDL
