MODEL 1
REMARK VINA RESULT:      -8.2      0.000      0.000
REMARK  Name = C:\Users\Docking\Desktop\test protocol\1iep_ligandH.pdb
REMARK  8 active torsions:
REMARK  status: ('A' for Active; 'I' for Inactive)
REMARK    1  A    between atoms: _5  and  _11
REMARK    2  A    between atoms: _19  and  _21
REMARK    3  A    between atoms: _22  and  _66
REMARK    4  A    between atoms: _27  and  _30
REMARK    5  A    between atoms: _32  and  _33
REMARK    6  A    between atoms: _38  and  _43
REMARK    7  A    between atoms: _43  and  _46
REMARK    8  A    between atoms: _53  and  _55
REMARK                            x       y       z     vdW  Elec       q    Type
REMARK                         _______ _______ _______ _____ _____    ______ ____
ROOT
ATOM     10  C   UNL     1      11.772  22.673  10.365  0.00  0.00    +0.038 A 
ATOM     11  C   UNL     1      12.862  22.583   9.462  0.00  0.00    +0.047 A 
ATOM     12  C   UNL     1      13.189  23.681   8.565  0.00  0.00    +0.035 A 
ATOM     32  C   UNL     1      12.386  24.858   8.617  0.00  0.00    +0.024 A 
ATOM     33  C   UNL     1      11.274  24.966   9.528  0.00  0.00    +0.007 A 
ATOM     34  C   UNL     1      10.945  23.885  10.414  0.00  0.00    -0.029 A 
ATOM     35  C   UNL     1       9.738  24.053  11.366  0.00  0.00    +0.045 C 
ENDROOT
BRANCH  10   9
ATOM      4  C   UNL     1       9.439  18.613  11.418  0.00  0.00    +0.077 A 
ATOM      5  C   UNL     1       8.670  18.672  10.208  0.00  0.00    +0.048 A 
ATOM      6  C   UNL     1       8.901  19.766   9.345  0.00  0.00    +0.116 A 
ATOM      7  N   UNL     1       9.833  20.725   9.678  0.00  0.00    -0.223 NA
ATOM      8  C   UNL     1      10.556  20.640  10.853  0.00  0.00    +0.220 A 
ATOM      9  N   UNL     1      11.504  21.589  11.204  0.00  0.00    -0.283 N 
ATOM     36  H   UNL     1      12.011  21.494  12.083  0.00  0.00    +0.155 HD
ATOM     37  N   UNL     1      10.353  19.605  11.695  0.00  0.00    -0.214 NA
BRANCH   4   3
ATOM      1  C   UNL     1       9.878  16.434  14.637  0.00  0.00    +0.020 A 
ATOM      2  C   UNL     1      10.037  17.518  13.694  0.00  0.00    +0.013 A 
ATOM      3  C   UNL     1       9.312  17.517  12.430  0.00  0.00    +0.019 A 
ATOM     38  C   UNL     1       8.425  16.398  12.149  0.00  0.00    +0.120 A 
ATOM     39  N   UNL     1       8.294  15.368  13.075  0.00  0.00    -0.263 NA
ATOM     40  C   UNL     1       8.988  15.357  14.294  0.00  0.00    +0.111 A 
ENDBRANCH   4   3
ENDBRANCH  10   9
BRANCH  12  13
ATOM     13  N   UNL     1      14.278  23.644   7.621  0.00  0.00    -0.281 N 
ATOM     14  C   UNL     1      14.306  23.033   6.377  0.00  0.00    +0.248 C 
ATOM     30  O   UNL     1      13.467  22.240   5.977  0.00  0.00    -0.270 OA
ATOM     31  H   UNL     1      15.131  24.126   7.903  0.00  0.00    +0.155 HD
BRANCH  14  15
ATOM     15  C   UNL     1      15.439  23.336   5.450  0.00  0.00    +0.037 A 
ATOM     16  C   UNL     1      15.198  23.750   4.066  0.00  0.00    +0.013 A 
ATOM     17  C   UNL     1      16.308  24.019   3.187  0.00  0.00    +0.005 A 
ATOM     18  C   UNL     1      17.672  23.878   3.693  0.00  0.00    -0.033 A 
ATOM     28  C   UNL     1      17.882  23.471   5.072  0.00  0.00    +0.005 A 
ATOM     29  C   UNL     1      16.796  23.205   5.936  0.00  0.00    +0.013 A 
BRANCH  18  19
ATOM     19  C   UNL     1      18.917  24.124   2.820  0.00  0.00    +0.119 C 
BRANCH  19  20
ATOM     20  N   UNL     1      19.071  25.482   2.216  0.00  0.00    -0.302 NA
ATOM     21  C   UNL     1      20.318  25.580   1.334  0.00  0.00    +0.066 C 
ATOM     22  C   UNL     1      20.451  26.999   0.692  0.00  0.00    -0.064 C 
ATOM     23  N   UNL     1      20.486  28.055   1.799  0.00  0.00    +0.379 N 
ATOM     24  C   UNL     1      20.670  29.385   1.201  0.00  0.00    -0.096 C 
ATOM     25  H   UNL     1      21.375  27.845   2.438  0.00  0.00    -0.082 HD
ATOM     26  C   UNL     1      19.251  27.962   2.683  0.00  0.00    -0.064 C 
ATOM     27  C   UNL     1      19.112  26.539   3.292  0.00  0.00    +0.066 C 
ENDBRANCH  19  20
ENDBRANCH  18  19
ENDBRANCH  14  15
ENDBRANCH  12  13
TORSDOF 6
ENDMDL
MODEL 2
REMARK VINA RESULT:      -8.1      4.461     14.141
REMARK  Name = C:\Users\Docking\Desktop\test protocol\1iep_ligandH.pdb
REMARK  8 active torsions:
REMARK  status: ('A' for Active; 'I' for Inactive)
REMARK    1  A    between atoms: _5  and  _11
REMARK    2  A    between atoms: _19  and  _21
REMARK    3  A    between atoms: _22  and  _66
REMARK    4  A    between atoms: _27  and  _30
REMARK    5  A    between atoms: _32  and  _33
REMARK    6  A    between atoms: _38  and  _43
REMARK    7  A    between atoms: _43  and  _46
REMARK    8  A    between atoms: _53  and  _55
REMARK                            x       y       z     vdW  Elec       q    Type
REMARK                         _______ _______ _______ _____ _____    ______ ____
ROOT
ATOM     10  C   UNL     1      20.183  25.578   4.000  0.00  0.00    +0.038 A 
ATOM     11  C   UNL     1      18.895  25.368   4.556  0.00  0.00    +0.047 A 
ATOM     12  C   UNL     1      18.305  24.039   4.607  0.00  0.00    +0.035 A 
ATOM     32  C   UNL     1      19.056  22.946   4.085  0.00  0.00    +0.024 A 
ATOM     33  C   UNL     1      20.366  23.141   3.515  0.00  0.00    +0.007 A 
ATOM     34  C   UNL     1      20.952  24.450   3.459  0.00  0.00    -0.029 A 
ATOM     35  C   UNL     1      22.357  24.602   2.831  0.00  0.00    +0.045 C 
ENDROOT
BRANCH  10   9
ATOM      4  C   UNL     1      21.070  29.742   1.784  0.00  0.00    +0.077 A 
ATOM      5  C   UNL     1      20.475  29.286   0.561  0.00  0.00    +0.048 A 
ATOM      6  C   UNL     1      19.958  27.971   0.542  0.00  0.00    +0.116 A 
ATOM      7  N   UNL     1      20.037  27.180   1.667  0.00  0.00    -0.223 NA
ATOM      8  C   UNL     1      20.619  27.650   2.830  0.00  0.00    +0.220 A 
ATOM      9  N   UNL     1      20.701  26.874   3.976  0.00  0.00    -0.283 N 
ATOM     36  H   UNL     1      21.145  27.255   4.812  0.00  0.00    +0.155 HD
ATOM     37  N   UNL     1      21.121  28.901   2.874  0.00  0.00    -0.214 NA
BRANCH   4   3
ATOM      1  C   UNL     1      23.036  33.069   1.177  0.00  0.00    +0.020 A 
ATOM      2  C   UNL     1      22.494  31.748   0.955  0.00  0.00    +0.013 A 
ATOM      3  C   UNL     1      21.657  31.107   1.962  0.00  0.00    +0.019 A 
ATOM     38  C   UNL     1      21.385  31.837   3.192  0.00  0.00    +0.120 A 
ATOM     39  N   UNL     1      21.922  33.107   3.378  0.00  0.00    -0.263 NA
ATOM     40  C   UNL     1      22.729  33.732   2.416  0.00  0.00    +0.111 A 
ENDBRANCH   4   3
ENDBRANCH  10   9
BRANCH  12  13
ATOM     13  N   UNL     1      16.999  23.766   5.152  0.00  0.00    -0.281 N 
ATOM     14  C   UNL     1      16.684  23.028   6.281  0.00  0.00    +0.248 C 
ATOM     30  O   UNL     1      17.471  22.307   6.877  0.00  0.00    -0.270 OA
ATOM     31  H   UNL     1      16.210  24.166   4.644  0.00  0.00    +0.155 HD
BRANCH  14  15
ATOM     15  C   UNL     1      15.290  23.087   6.818  0.00  0.00    +0.037 A 
ATOM     16  C   UNL     1      14.132  23.121   5.922  0.00  0.00    +0.013 A 
ATOM     17  C   UNL     1      12.799  23.195   6.465  0.00  0.00    +0.005 A 
ATOM     18  C   UNL     1      12.618  23.235   7.914  0.00  0.00    -0.033 A 
ATOM     28  C   UNL     1      13.784  23.194   8.781  0.00  0.00    +0.005 A 
ATOM     29  C   UNL     1      15.092  23.122   8.251  0.00  0.00    +0.013 A 
BRANCH  18  19
ATOM     19  C   UNL     1      11.233  23.335   8.582  0.00  0.00    +0.119 C 
BRANCH  19  20
ATOM     20  N   UNL     1      10.440  24.574   8.326  0.00  0.00    -0.302 NA
ATOM     21  C   UNL     1       9.478  24.887   9.476  0.00  0.00    +0.066 C 
ATOM     22  C   UNL     1       8.672  26.199   9.203  0.00  0.00    -0.064 C 
ATOM     23  N   UNL     1       7.911  26.061   7.883  0.00  0.00    +0.379 N 
ATOM     24  C   UNL     1       7.107  27.270   7.652  0.00  0.00    -0.096 C 
ATOM     25  H   UNL     1       7.209  25.202   7.986  0.00  0.00    -0.082 HD
ATOM     26  C   UNL     1       8.860  25.747   6.735  0.00  0.00    -0.064 C 
ATOM     27  C   UNL     1       9.677  24.458   7.030  0.00  0.00    +0.066 C 
ENDBRANCH  19  20
ENDBRANCH  18  19
ENDBRANCH  14  15
ENDBRANCH  12  13
TORSDOF 6
ENDMDL
MODEL 3
REMARK VINA RESULT:      -8.1      2.340     14.437
REMARK  Name = C:\Users\Docking\Desktop\test protocol\1iep_ligandH.pdb
REMARK  8 active torsions:
REMARK  status: ('A' for Active; 'I' for Inactive)
REMARK    1  A    between atoms: _5  and  _11
REMARK    2  A    between atoms: _19  and  _21
REMARK    3  A    between atoms: _22  and  _66
REMARK    4  A    between atoms: _27  and  _30
REMARK    5  A    between atoms: _32  and  _33
REMARK    6  A    between atoms: _38  and  _43
REMARK    7  A    between atoms: _43  and  _46
REMARK    8  A    between atoms: _53  and  _55
REMARK                            x       y       z     vdW  Elec       q    Type
REMARK                         _______ _______ _______ _____ _____    ______ ____
ROOT
ATOM     10  C   UNL     1      20.003  25.527   4.067  0.00  0.00    +0.038 A 
ATOM     11  C   UNL     1      18.736  25.342   4.677  0.00  0.00    +0.047 A 
ATOM     12  C   UNL     1      18.116  24.028   4.739  0.00  0.00    +0.035 A 
ATOM     32  C   UNL     1      18.815  22.923   4.171  0.00  0.00    +0.024 A 
ATOM     33  C   UNL     1      20.103  23.093   3.546  0.00  0.00    +0.007 A 
ATOM     34  C   UNL     1      20.719  24.388   3.480  0.00  0.00    -0.029 A 
ATOM     35  C   UNL     1      22.098  24.512   2.792  0.00  0.00    +0.045 C 
ENDROOT
BRANCH  10   9
ATOM      4  C   UNL     1      20.997  29.652   1.823  0.00  0.00    +0.077 A 
ATOM      5  C   UNL     1      20.394  29.202   0.602  0.00  0.00    +0.048 A 
ATOM      6  C   UNL     1      19.846  27.899   0.590  0.00  0.00    +0.116 A 
ATOM      7  N   UNL     1      19.902  27.115   1.722  0.00  0.00    -0.223 NA
ATOM      8  C   UNL     1      20.492  27.579   2.883  0.00  0.00    +0.220 A 
ATOM      9  N   UNL     1      20.553  26.811   4.035  0.00  0.00    -0.283 N 
ATOM     36  H   UNL     1      21.003  27.187   4.869  0.00  0.00    +0.155 HD
ATOM     37  N   UNL     1      21.024  28.819   2.919  0.00  0.00    -0.214 NA
BRANCH   4   3
ATOM      1  C   UNL     1      23.009  32.944   1.180  0.00  0.00    +0.020 A 
ATOM      2  C   UNL     1      22.434  31.636   0.965  0.00  0.00    +0.013 A 
ATOM      3  C   UNL     1      21.616  31.005   1.993  0.00  0.00    +0.019 A 
ATOM     38  C   UNL     1      21.396  31.730   3.235  0.00  0.00    +0.120 A 
ATOM     39  N   UNL     1      21.963  32.987   3.414  0.00  0.00    -0.263 NA
ATOM     40  C   UNL     1      22.754  33.604   2.433  0.00  0.00    +0.111 A 
ENDBRANCH   4   3
ENDBRANCH  10   9
BRANCH  12  13
ATOM     13  N   UNL     1      16.828  23.781   5.338  0.00  0.00    -0.281 N 
ATOM     14  C   UNL     1      16.529  22.937   6.396  0.00  0.00    +0.248 C 
ATOM     30  O   UNL     1      17.294  22.101   6.850  0.00  0.00    -0.270 OA
ATOM     31  H   UNL     1      16.041  24.290   4.934  0.00  0.00    +0.155 HD
BRANCH  14  15
ATOM     15  C   UNL     1      15.178  23.026   7.030  0.00  0.00    +0.037 A 
ATOM     16  C   UNL     1      13.973  23.243   6.225  0.00  0.00    +0.013 A 
ATOM     17  C   UNL     1      12.685  23.341   6.864  0.00  0.00    +0.005 A 
ATOM     18  C   UNL     1      12.595  23.222   8.318  0.00  0.00    -0.033 A 
ATOM     28  C   UNL     1      13.806  23.002   9.091  0.00  0.00    +0.005 A 
ATOM     29  C   UNL     1      15.070  22.906   8.468  0.00  0.00    +0.013 A 
BRANCH  18  19
ATOM     19  C   UNL     1      11.265  23.335   9.086  0.00  0.00    +0.119 C 
BRANCH  19  20
ATOM     20  N   UNL     1      10.739  22.095   9.729  0.00  0.00    -0.302 NA
ATOM     21  C   UNL     1      10.719  20.909   8.761  0.00  0.00    +0.066 C 
ATOM     22  C   UNL     1      10.187  19.614   9.457  0.00  0.00    -0.064 C 
ATOM     23  N   UNL     1       8.789  19.878  10.020  0.00  0.00    +0.379 N 
ATOM     24  C   UNL     1       8.263  18.646  10.624  0.00  0.00    -0.096 C 
ATOM     25  H   UNL     1       8.126  20.146   9.164  0.00  0.00    -0.082 HD
ATOM     26  C   UNL     1       8.800  21.058  10.982  0.00  0.00    -0.064 C 
ATOM     27  C   UNL     1       9.358  22.332  10.288  0.00  0.00    +0.066 C 
ENDBRANCH  19  20
ENDBRANCH  18  19
ENDBRANCH  14  15
ENDBRANCH  12  13
TORSDOF 6
ENDMDL
MODEL 4
REMARK VINA RESULT:      -8.0      1.157      1.863
REMARK  Name = C:\Users\Docking\Desktop\test protocol\1iep_ligandH.pdb
REMARK  8 active torsions:
REMARK  status: ('A' for Active; 'I' for Inactive)
REMARK    1  A    between atoms: _5  and  _11
REMARK    2  A    between atoms: _19  and  _21
REMARK    3  A    between atoms: _22  and  _66
REMARK    4  A    between atoms: _27  and  _30
REMARK    5  A    between atoms: _32  and  _33
REMARK    6  A    between atoms: _38  and  _43
REMARK    7  A    between atoms: _43  and  _46
REMARK    8  A    between atoms: _53  and  _55
REMARK                            x       y       z     vdW  Elec       q    Type
REMARK                         _______ _______ _______ _____ _____    ______ ____
ROOT
ATOM     10  C   UNL     1      11.665  22.730  10.417  0.00  0.00    +0.038 A 
ATOM     11  C   UNL     1      12.740  22.686   9.494  0.00  0.00    +0.047 A 
ATOM     12  C   UNL     1      13.024  23.810   8.615  0.00  0.00    +0.035 A 
ATOM     32  C   UNL     1      12.194  24.965   8.706  0.00  0.00    +0.024 A 
ATOM     33  C   UNL     1      11.096  25.027   9.639  0.00  0.00    +0.007 A 
ATOM     34  C   UNL     1      10.810  23.920  10.506  0.00  0.00    -0.029 A 
ATOM     35  C   UNL     1       9.616  24.039  11.482  0.00  0.00    +0.045 C 
ENDROOT
BRANCH  10   9
ATOM      4  C   UNL     1       9.443  18.597  11.426  0.00  0.00    +0.077 A 
ATOM      5  C   UNL     1       8.650  18.663  10.232  0.00  0.00    +0.048 A 
ATOM      6  C   UNL     1       8.839  19.782   9.389  0.00  0.00    +0.116 A 
ATOM      7  N   UNL     1       9.756  20.754   9.725  0.00  0.00    -0.223 NA
ATOM      8  C   UNL     1      10.504  20.660  10.884  0.00  0.00    +0.220 A 
ATOM      9  N   UNL     1      11.437  21.622  11.237  0.00  0.00    -0.283 N 
ATOM     36  H   UNL     1      11.963  21.520  12.104  0.00  0.00    +0.155 HD
ATOM     37  N   UNL     1      10.341  19.603  11.706  0.00  0.00    -0.214 NA
BRANCH   4   3
ATOM      1  C   UNL     1      10.011  16.349  14.576  0.00  0.00    +0.020 A 
ATOM      2  C   UNL     1      10.128  17.455  13.654  0.00  0.00    +0.013 A 
ATOM      3  C   UNL     1       9.361  17.476  12.415  0.00  0.00    +0.019 A 
ATOM     38  C   UNL     1       8.477  16.354  12.137  0.00  0.00    +0.120 A 
ATOM     39  N   UNL     1       8.386  15.302  13.043  0.00  0.00    -0.263 NA
ATOM     40  C   UNL     1       9.121  15.270  14.238  0.00  0.00    +0.111 A 
ENDBRANCH   4   3
ENDBRANCH  10   9
BRANCH  12  13
ATOM     13  N   UNL     1      14.097  23.820   7.652  0.00  0.00    -0.281 N 
ATOM     14  C   UNL     1      14.274  22.978   6.566  0.00  0.00    +0.248 C 
ATOM     30  O   UNL     1      13.645  21.947   6.381  0.00  0.00    -0.270 OA
ATOM     31  H   UNL     1      14.813  24.533   7.787  0.00  0.00    +0.155 HD
BRANCH  14  15
ATOM     15  C   UNL     1      15.310  23.324   5.546  0.00  0.00    +0.037 A 
ATOM     16  C   UNL     1      16.734  23.352   5.888  0.00  0.00    +0.013 A 
ATOM     17  C   UNL     1      17.712  23.706   4.889  0.00  0.00    +0.005 A 
ATOM     18  C   UNL     1      17.267  24.032   3.537  0.00  0.00    -0.033 A 
ATOM     28  C   UNL     1      15.848  23.991   3.223  0.00  0.00    +0.005 A 
ATOM     29  C   UNL     1      14.887  23.646   4.200  0.00  0.00    +0.013 A 
BRANCH  18  19
ATOM     19  C   UNL     1      18.237  24.441   2.413  0.00  0.00    +0.119 C 
BRANCH  19  20
ATOM     20  N   UNL     1      19.686  24.543   2.763  0.00  0.00    -0.302 NA
ATOM     21  C   UNL     1      20.345  25.771   2.131  0.00  0.00    +0.066 C 
ATOM     22  C   UNL     1      21.854  25.874   2.526  0.00  0.00    -0.064 C 
ATOM     23  N   UNL     1      22.577  24.594   2.105  0.00  0.00    +0.379 N 
ATOM     24  C   UNL     1      24.008  24.712   2.423  0.00  0.00    -0.096 C 
ATOM     25  H   UNL     1      22.483  24.501   0.998  0.00  0.00    -0.082 HD
ATOM     26  C   UNL     1      21.926  23.367   2.728  0.00  0.00    -0.064 C 
ATOM     27  C   UNL     1      20.420  23.290   2.353  0.00  0.00    +0.066 C 
ENDBRANCH  19  20
ENDBRANCH  18  19
ENDBRANCH  14  15
ENDBRANCH  12  13
TORSDOF 6
ENDMDL
MODEL 5
REMARK VINA RESULT:      -7.9      4.037      6.866
REMARK  Name = C:\Users\Docking\Desktop\test protocol\1iep_ligandH.pdb
REMARK  8 active torsions:
REMARK  status: ('A' for Active; 'I' for Inactive)
REMARK    1  A    between atoms: _5  and  _11
REMARK    2  A    between atoms: _19  and  _21
REMARK    3  A    between atoms: _22  and  _66
REMARK    4  A    between atoms: _27  and  _30
REMARK    5  A    between atoms: _32  and  _33
REMARK    6  A    between atoms: _38  and  _43
REMARK    7  A    between atoms: _43  and  _46
REMARK    8  A    between atoms: _53  and  _55
REMARK                            x       y       z     vdW  Elec       q    Type
REMARK                         _______ _______ _______ _____ _____    ______ ____
ROOT
ATOM     10  C   UNL     1      12.500  23.165   8.076  0.00  0.00    +0.038 A 
ATOM     11  C   UNL     1      13.689  23.458   7.362  0.00  0.00    +0.047 A 
ATOM     12  C   UNL     1      14.995  23.100   7.895  0.00  0.00    +0.035 A 
ATOM     32  C   UNL     1      15.051  22.440   9.157  0.00  0.00    +0.024 A 
ATOM     33  C   UNL     1      13.852  22.135   9.897  0.00  0.00    +0.007 A 
ATOM     34  C   UNL     1      12.562  22.489   9.378  0.00  0.00    -0.029 A 
ATOM     35  C   UNL     1      11.310  22.143  10.217  0.00  0.00    +0.045 C 
ENDROOT
BRANCH  10   9
ATOM      4  C   UNL     1       8.882  26.260   7.470  0.00  0.00    +0.077 A 
ATOM      5  C   UNL     1       9.472  27.216   8.363  0.00  0.00    +0.048 A 
ATOM      6  C   UNL     1      10.703  26.869   8.963  0.00  0.00    +0.116 A 
ATOM      7  N   UNL     1      11.292  25.655   8.683  0.00  0.00    -0.223 NA
ATOM      8  C   UNL     1      10.695  24.755   7.819  0.00  0.00    +0.220 A 
ATOM      9  N   UNL     1      11.273  23.532   7.518  0.00  0.00    -0.283 N 
ATOM     36  H   UNL     1      10.798  22.893   6.881  0.00  0.00    +0.155 HD
ATOM     37  N   UNL     1       9.518  25.062   7.235  0.00  0.00    -0.214 NA
BRANCH   4   3
ATOM      1  C   UNL     1       5.115  26.998   6.715  0.00  0.00    +0.020 A 
ATOM      2  C   UNL     1       6.341  26.793   7.451  0.00  0.00    +0.013 A 
ATOM      3  C   UNL     1       7.584  26.482   6.757  0.00  0.00    +0.019 A 
ATOM     38  C   UNL     1       7.553  26.386   5.305  0.00  0.00    +0.120 A 
ATOM     39  N   UNL     1       6.357  26.588   4.623  0.00  0.00    -0.263 NA
ATOM     40  C   UNL     1       5.154  26.886   5.280  0.00  0.00    +0.111 A 
ENDBRANCH   4   3
ENDBRANCH  10   9
BRANCH  12  13
ATOM     13  N   UNL     1      16.237  23.379   7.219  0.00  0.00    -0.281 N 
ATOM     14  C   UNL     1      16.825  22.665   6.187  0.00  0.00    +0.248 C 
ATOM     30  O   UNL     1      16.474  21.550   5.831  0.00  0.00    -0.270 OA
ATOM     31  H   UNL     1      16.745  24.203   7.540  0.00  0.00    +0.155 HD
BRANCH  14  15
ATOM     15  C   UNL     1      17.978  23.272   5.455  0.00  0.00    +0.037 A 
ATOM     16  C   UNL     1      17.847  24.556   4.761  0.00  0.00    +0.013 A 
ATOM     17  C   UNL     1      18.971  25.110   4.048  0.00  0.00    +0.005 A 
ATOM     18  C   UNL     1      20.236  24.380   4.027  0.00  0.00    -0.033 A 
ATOM     28  C   UNL     1      20.340  23.111   4.728  0.00  0.00    +0.005 A 
ATOM     29  C   UNL     1      19.240  22.564   5.427  0.00  0.00    +0.013 A 
BRANCH  18  19
ATOM     19  C   UNL     1      21.481  24.886   3.274  0.00  0.00    +0.119 C 
BRANCH  19  20
ATOM     20  N   UNL     1      22.383  23.857   2.675  0.00  0.00    -0.302 NA
ATOM     21  C   UNL     1      23.841  24.057   3.097  0.00  0.00    +0.066 C 
ATOM     22  C   UNL     1      24.768  22.959   2.480  0.00  0.00    -0.064 C 
ATOM     23  N   UNL     1      24.637  22.982   0.956  0.00  0.00    +0.379 N 
ATOM     24  C   UNL     1      25.550  21.990   0.370  0.00  0.00    -0.096 C 
ATOM     25  H   UNL     1      24.960  23.989   0.604  0.00  0.00    -0.082 HD
ATOM     26  C   UNL     1      23.189  22.787   0.529  0.00  0.00    -0.064 C 
ATOM     27  C   UNL     1      22.272  23.865   1.170  0.00  0.00    +0.066 C 
ENDBRANCH  19  20
ENDBRANCH  18  19
ENDBRANCH  14  15
ENDBRANCH  12  13
TORSDOF 6
ENDMDL
