MODEL 1
REMARK VINA RESULT:      -8.5      0.000      0.000
REMARK  Name = C:\Users\Docking\Desktop\test protocol\1iep_ligandH.pdb
REMARK  8 active torsions:
REMARK  status: ('A' for Active; 'I' for Inactive)
REMARK    1  A    between atoms: _5  and  _11
REMARK    2  A    between atoms: _19  and  _21
REMARK    3  A    between atoms: _22  and  _66
REMARK    4  A    between atoms: _27  and  _30
REMARK    5  A    between atoms: _32  and  _33
REMARK    6  A    between atoms: _38  and  _43
REMARK    7  A    between atoms: _43  and  _46
REMARK    8  A    between atoms: _53  and  _55
REMARK                            x       y       z     vdW  Elec       q    Type
REMARK                         _______ _______ _______ _____ _____    ______ ____
ROOT
ATOM     10  C   UNL     1      19.807  25.624   4.133  0.00  0.00    +0.038 A 
ATOM     11  C   UNL     1      18.525  25.451   4.714  0.00  0.00    +0.047 A 
ATOM     12  C   UNL     1      17.896  24.140   4.774  0.00  0.00    +0.035 A 
ATOM     32  C   UNL     1      18.604  23.027   4.235  0.00  0.00    +0.024 A 
ATOM     33  C   UNL     1      19.908  23.184   3.640  0.00  0.00    +0.007 A 
ATOM     34  C   UNL     1      20.532  24.475   3.576  0.00  0.00    -0.029 A 
ATOM     35  C   UNL     1      21.928  24.587   2.921  0.00  0.00    +0.045 C 
ENDROOT
BRANCH  10   9
ATOM      4  C   UNL     1      20.878  29.720   1.871  0.00  0.00    +0.077 A 
ATOM      5  C   UNL     1      20.305  29.258   0.639  0.00  0.00    +0.048 A 
ATOM      6  C   UNL     1      19.751  27.958   0.628  0.00  0.00    +0.116 A 
ATOM      7  N   UNL     1      19.774  27.186   1.769  0.00  0.00    -0.223 NA
ATOM      8  C   UNL     1      20.336  27.661   2.940  0.00  0.00    +0.220 A 
ATOM      9  N   UNL     1      20.363  26.905   4.102  0.00  0.00    -0.283 N 
ATOM     36  H   UNL     1      20.793  27.288   4.943  0.00  0.00    +0.155 HD
ATOM     37  N   UNL     1      20.873  28.898   2.976  0.00  0.00    -0.214 NA
BRANCH   4   3
ATOM      1  C   UNL     1      22.885  33.014   1.227  0.00  0.00    +0.020 A 
ATOM      2  C   UNL     1      22.309  31.707   1.011  0.00  0.00    +0.013 A 
ATOM      3  C   UNL     1      21.498  31.071   2.042  0.00  0.00    +0.019 A 
ATOM     38  C   UNL     1      21.289  31.790   3.290  0.00  0.00    +0.120 A 
ATOM     39  N   UNL     1      21.857  33.047   3.470  0.00  0.00    -0.263 NA
ATOM     40  C   UNL     1      22.640  33.669   2.485  0.00  0.00    +0.111 A 
ENDBRANCH   4   3
ENDBRANCH  10   9
BRANCH  12  13
ATOM     13  N   UNL     1      16.593  23.905   5.344  0.00  0.00    -0.281 N 
ATOM     14  C   UNL     1      16.280  23.187   6.486  0.00  0.00    +0.248 C 
ATOM     30  O   UNL     1      17.059  22.454   7.077  0.00  0.00    -0.270 OA
ATOM     31  H   UNL     1      15.805  24.318   4.844  0.00  0.00    +0.155 HD
BRANCH  14  15
ATOM     15  C   UNL     1      14.897  23.285   7.045  0.00  0.00    +0.037 A 
ATOM     16  C   UNL     1      14.660  23.283   8.491  0.00  0.00    +0.013 A 
ATOM     17  C   UNL     1      13.315  23.362   9.003  0.00  0.00    +0.005 A 
ATOM     18  C   UNL     1      12.196  23.446   8.068  0.00  0.00    -0.033 A 
ATOM     28  C   UNL     1      12.460  23.451   6.638  0.00  0.00    +0.005 A 
ATOM     29  C   UNL     1      13.777  23.373   6.133  0.00  0.00    +0.013 A 
BRANCH  18  19
ATOM     19  C   UNL     1      10.727  23.512   8.525  0.00  0.00    +0.119 C 
BRANCH  19  20
ATOM     20  N   UNL     1      10.178  22.319   9.236  0.00  0.00    -0.302 NA
ATOM     21  C   UNL     1      10.318  22.441  10.756  0.00  0.00    +0.066 C 
ATOM     22  C   UNL     1       9.718  21.195  11.485  0.00  0.00    -0.064 C 
ATOM     23  N   UNL     1      10.409  19.928  10.977  0.00  0.00    +0.379 N 
ATOM     24  C   UNL     1       9.888  18.761  11.702  0.00  0.00    -0.096 C 
ATOM     25  H   UNL     1      11.495  20.018  11.214  0.00  0.00    -0.082 HD
ATOM     26  C   UNL     1      10.277  19.801   9.466  0.00  0.00    -0.064 C 
ATOM     27  C   UNL     1      10.849  21.058   8.752  0.00  0.00    +0.066 C 
ENDBRANCH  19  20
ENDBRANCH  18  19
ENDBRANCH  14  15
ENDBRANCH  12  13
TORSDOF 6
ENDMDL
MODEL 2
REMARK VINA RESULT:      -8.4      3.797     12.573
REMARK  Name = C:\Users\Docking\Desktop\test protocol\1iep_ligandH.pdb
REMARK  8 active torsions:
REMARK  status: ('A' for Active; 'I' for Inactive)
REMARK    1  A    between atoms: _5  and  _11
REMARK    2  A    between atoms: _19  and  _21
REMARK    3  A    between atoms: _22  and  _66
REMARK    4  A    between atoms: _27  and  _30
REMARK    5  A    between atoms: _32  and  _33
REMARK    6  A    between atoms: _38  and  _43
REMARK    7  A    between atoms: _43  and  _46
REMARK    8  A    between atoms: _53  and  _55
REMARK                            x       y       z     vdW  Elec       q    Type
REMARK                         _______ _______ _______ _____ _____    ______ ____
ROOT
ATOM     10  C   UNL     1      10.928  24.038   8.513  0.00  0.00    +0.038 A 
ATOM     11  C   UNL     1      12.078  24.094   7.684  0.00  0.00    +0.047 A 
ATOM     12  C   UNL     1      13.400  23.794   8.211  0.00  0.00    +0.035 A 
ATOM     32  C   UNL     1      13.515  23.438   9.586  0.00  0.00    +0.024 A 
ATOM     33  C   UNL     1      12.357  23.378  10.443  0.00  0.00    +0.007 A 
ATOM     34  C   UNL     1      11.050  23.675   9.930  0.00  0.00    -0.029 A 
ATOM     35  C   UNL     1       9.845  23.600  10.896  0.00  0.00    +0.045 C 
ENDROOT
BRANCH  10   9
ATOM      4  C   UNL     1       7.416  27.113   7.397  0.00  0.00    +0.077 A 
ATOM      5  C   UNL     1       8.108  28.215   8.000  0.00  0.00    +0.048 A 
ATOM      6  C   UNL     1       9.362  27.947   8.593  0.00  0.00    +0.116 A 
ATOM      7  N   UNL     1       9.876  26.668   8.578  0.00  0.00    -0.223 NA
ATOM      8  C   UNL     1       9.182  25.628   7.989  0.00  0.00    +0.220 A 
ATOM      9  N   UNL     1       9.683  24.336   7.955  0.00  0.00    -0.283 N 
ATOM     36  H   UNL     1       9.137  23.594   7.517  0.00  0.00    +0.155 HD
ATOM     37  N   UNL     1       7.982  25.858   7.417  0.00  0.00    -0.214 NA
BRANCH   4   3
ATOM      1  C   UNL     1       3.611  27.739   6.743  0.00  0.00    +0.020 A 
ATOM      2  C   UNL     1       4.873  27.633   7.437  0.00  0.00    +0.013 A 
ATOM      3  C   UNL     1       6.083  27.238   6.727  0.00  0.00    +0.019 A 
ATOM     38  C   UNL     1       5.980  26.955   5.303  0.00  0.00    +0.120 A 
ATOM     39  N   UNL     1       4.750  27.064   4.661  0.00  0.00    -0.263 NA
ATOM     40  C   UNL     1       3.579  27.441   5.335  0.00  0.00    +0.111 A 
ENDBRANCH   4   3
ENDBRANCH  10   9
BRANCH  12  13
ATOM     13  N   UNL     1      14.605  23.842   7.420  0.00  0.00    -0.281 N 
ATOM     14  C   UNL     1      15.163  22.830   6.656  0.00  0.00    +0.248 C 
ATOM     30  O   UNL     1      14.824  21.657   6.709  0.00  0.00    -0.270 OA
ATOM     31  H   UNL     1      15.107  24.730   7.423  0.00  0.00    +0.155 HD
BRANCH  14  15
ATOM     15  C   UNL     1      16.268  23.166   5.708  0.00  0.00    +0.037 A 
ATOM     16  C   UNL     1      17.647  22.747   5.968  0.00  0.00    +0.013 A 
ATOM     17  C   UNL     1      18.697  23.099   5.045  0.00  0.00    +0.005 A 
ATOM     18  C   UNL     1      18.370  23.875   3.852  0.00  0.00    -0.033 A 
ATOM     28  C   UNL     1      16.993  24.274   3.615  0.00  0.00    +0.005 A 
ATOM     29  C   UNL     1      15.962  23.931   4.518  0.00  0.00    +0.013 A 
BRANCH  18  19
ATOM     19  C   UNL     1      19.430  24.314   2.824  0.00  0.00    +0.119 C 
BRANCH  19  20
ATOM     20  N   UNL     1      19.456  25.758   2.443  0.00  0.00    -0.302 NA
ATOM     21  C   UNL     1      19.419  25.953   0.925  0.00  0.00    +0.066 C 
ATOM     22  C   UNL     1      19.424  27.469   0.545  0.00  0.00    -0.064 C 
ATOM     23  N   UNL     1      20.662  28.138   1.146  0.00  0.00    +0.379 N 
ATOM     24  C   UNL     1      20.700  29.551   0.742  0.00  0.00    -0.096 C 
ATOM     25  H   UNL     1      21.560  27.638   0.714  0.00  0.00    -0.082 HD
ATOM     26  C   UNL     1      20.708  27.947   2.655  0.00  0.00    -0.064 C 
ATOM     27  C   UNL     1      20.673  26.437   3.023  0.00  0.00    +0.066 C 
ENDBRANCH  19  20
ENDBRANCH  18  19
ENDBRANCH  14  15
ENDBRANCH  12  13
TORSDOF 6
ENDMDL
MODEL 3
REMARK VINA RESULT:      -8.4      2.213     14.352
REMARK  Name = C:\Users\Docking\Desktop\test protocol\1iep_ligandH.pdb
REMARK  8 active torsions:
REMARK  status: ('A' for Active; 'I' for Inactive)
REMARK    1  A    between atoms: _5  and  _11
REMARK    2  A    between atoms: _19  and  _21
REMARK    3  A    between atoms: _22  and  _66
REMARK    4  A    between atoms: _27  and  _30
REMARK    5  A    between atoms: _32  and  _33
REMARK    6  A    between atoms: _38  and  _43
REMARK    7  A    between atoms: _43  and  _46
REMARK    8  A    between atoms: _53  and  _55
REMARK                            x       y       z     vdW  Elec       q    Type
REMARK                         _______ _______ _______ _____ _____    ______ ____
ROOT
ATOM     10  C   UNL     1      11.926  22.687  10.384  0.00  0.00    +0.038 A 
ATOM     11  C   UNL     1      12.969  22.616   9.426  0.00  0.00    +0.047 A 
ATOM     12  C   UNL     1      13.290  23.752   8.577  0.00  0.00    +0.035 A 
ATOM     32  C   UNL     1      12.529  24.948   8.733  0.00  0.00    +0.024 A 
ATOM     33  C   UNL     1      11.465  25.037   9.701  0.00  0.00    +0.007 A 
ATOM     34  C   UNL     1      11.142  23.918  10.540  0.00  0.00    -0.029 A 
ATOM     35  C   UNL     1       9.986  24.068  11.556  0.00  0.00    +0.045 C 
ENDROOT
BRANCH  10   9
ATOM      4  C   UNL     1       9.451  18.694  11.369  0.00  0.00    +0.077 A 
ATOM      5  C   UNL     1       8.597  18.872  10.231  0.00  0.00    +0.048 A 
ATOM      6  C   UNL     1       8.823  20.008   9.421  0.00  0.00    +0.116 A 
ATOM      7  N   UNL     1       9.831  20.892   9.736  0.00  0.00    -0.223 NA
ATOM      8  C   UNL     1      10.636  20.692  10.842  0.00  0.00    +0.220 A 
ATOM      9  N   UNL     1      11.661  21.565  11.173  0.00  0.00    -0.283 N 
ATOM     36  H   UNL     1      12.228  21.386  12.002  0.00  0.00    +0.155 HD
ATOM     37  N   UNL     1      10.439  19.616  11.632  0.00  0.00    -0.214 NA
BRANCH   4   3
ATOM      1  C   UNL     1       9.872  16.373  14.490  0.00  0.00    +0.020 A 
ATOM      2  C   UNL     1      10.014  17.511  13.610  0.00  0.00    +0.013 A 
ATOM      3  C   UNL     1       9.340  17.541  12.318  0.00  0.00    +0.019 A 
ATOM     38  C   UNL     1       8.523  16.397  11.944  0.00  0.00    +0.120 A 
ATOM     39  N   UNL     1       8.407  15.315  12.811  0.00  0.00    -0.263 NA
ATOM     40  C   UNL     1       9.052  15.273  14.056  0.00  0.00    +0.111 A 
ENDBRANCH   4   3
ENDBRANCH  10   9
BRANCH  12  13
ATOM     13  N   UNL     1      14.332  23.736   7.581  0.00  0.00    -0.281 N 
ATOM     14  C   UNL     1      14.276  23.219   6.297  0.00  0.00    +0.248 C 
ATOM     30  O   UNL     1      13.382  22.497   5.882  0.00  0.00    -0.270 OA
ATOM     31  H   UNL     1      15.220  24.157   7.856  0.00  0.00    +0.155 HD
BRANCH  14  15
ATOM     15  C   UNL     1      15.379  23.538   5.341  0.00  0.00    +0.037 A 
ATOM     16  C   UNL     1      15.095  23.976   3.972  0.00  0.00    +0.013 A 
ATOM     17  C   UNL     1      16.178  24.261   3.064  0.00  0.00    +0.005 A 
ATOM     18  C   UNL     1      17.556  24.111   3.525  0.00  0.00    -0.033 A 
ATOM     28  C   UNL     1      17.810  23.681   4.890  0.00  0.00    +0.005 A 
ATOM     29  C   UNL     1      16.751  23.399   5.782  0.00  0.00    +0.013 A 
BRANCH  18  19
ATOM     19  C   UNL     1      18.774  24.374   2.618  0.00  0.00    +0.119 C 
BRANCH  19  20
ATOM     20  N   UNL     1      18.930  25.752   2.065  0.00  0.00    -0.302 NA
ATOM     21  C   UNL     1      20.068  25.835   1.044  0.00  0.00    +0.066 C 
ATOM     22  C   UNL     1      20.203  27.279   0.458  0.00  0.00    -0.064 C 
ATOM     23  N   UNL     1      20.425  28.271   1.601  0.00  0.00    +0.379 N 
ATOM     24  C   UNL     1      20.610  29.621   1.049  0.00  0.00    -0.096 C 
ATOM     25  H   UNL     1      21.371  27.985   2.118  0.00  0.00    -0.082 HD
ATOM     26  C   UNL     1      19.299  28.193   2.621  0.00  0.00    -0.064 C 
ATOM     27  C   UNL     1      19.155  26.748   3.176  0.00  0.00    +0.066 C 
ENDBRANCH  19  20
ENDBRANCH  18  19
ENDBRANCH  14  15
ENDBRANCH  12  13
TORSDOF 6
ENDMDL
MODEL 4
REMARK VINA RESULT:      -8.3      4.925      8.165
REMARK  Name = C:\Users\Docking\Desktop\test protocol\1iep_ligandH.pdb
REMARK  8 active torsions:
REMARK  status: ('A' for Active; 'I' for Inactive)
REMARK    1  A    between atoms: _5  and  _11
REMARK    2  A    between atoms: _19  and  _21
REMARK    3  A    between atoms: _22  and  _66
REMARK    4  A    between atoms: _27  and  _30
REMARK    5  A    between atoms: _32  and  _33
REMARK    6  A    between atoms: _38  and  _43
REMARK    7  A    between atoms: _43  and  _46
REMARK    8  A    between atoms: _53  and  _55
REMARK                            x       y       z     vdW  Elec       q    Type
REMARK                         _______ _______ _______ _____ _____    ______ ____
ROOT
ATOM     10  C   UNL     1      14.517  23.096   8.008  0.00  0.00    +0.038 A 
ATOM     11  C   UNL     1      13.333  23.856   7.838  0.00  0.00    +0.047 A 
ATOM     12  C   UNL     1      12.061  23.400   8.378  0.00  0.00    +0.035 A 
ATOM     32  C   UNL     1      12.034  22.165   9.089  0.00  0.00    +0.024 A 
ATOM     33  C   UNL     1      13.228  21.379   9.271  0.00  0.00    +0.007 A 
ATOM     34  C   UNL     1      14.485  21.822   8.738  0.00  0.00    -0.029 A 
ATOM     35  C   UNL     1      15.732  20.936   8.958  0.00  0.00    +0.045 C 
ENDROOT
BRANCH  10   9
ATOM      4  C   UNL     1      17.553  23.742   4.347  0.00  0.00    +0.077 A 
ATOM      5  C   UNL     1      16.703  23.028   3.439  0.00  0.00    +0.048 A 
ATOM      6  C   UNL     1      15.496  22.505   3.955  0.00  0.00    +0.116 A 
ATOM      7  N   UNL     1      15.174  22.687   5.283  0.00  0.00    -0.223 NA
ATOM      8  C   UNL     1      16.018  23.379   6.132  0.00  0.00    +0.220 A 
ATOM      9  N   UNL     1      15.711  23.581   7.469  0.00  0.00    -0.283 N 
ATOM     36  H   UNL     1      16.363  24.090   8.065  0.00  0.00    +0.155 HD
ATOM     37  N   UNL     1      17.177  23.887   5.664  0.00  0.00    -0.214 NA
BRANCH   4   3
ATOM      1  C   UNL     1      20.541  26.238   3.964  0.00  0.00    +0.020 A 
ATOM      2  C   UNL     1      19.268  25.690   4.374  0.00  0.00    +0.013 A 
ATOM      3  C   UNL     1      18.860  24.356   3.952  0.00  0.00    +0.019 A 
ATOM     38  C   UNL     1      19.770  23.596   3.109  0.00  0.00    +0.120 A 
ATOM     39  N   UNL     1      20.989  24.150   2.728  0.00  0.00    -0.263 NA
ATOM     40  C   UNL     1      21.391  25.433   3.127  0.00  0.00    +0.111 A 
ENDBRANCH   4   3
ENDBRANCH  10   9
BRANCH  12  13
ATOM     13  N   UNL     1      10.824  24.125   8.229  0.00  0.00    -0.281 N 
ATOM     14  C   UNL     1      10.575  25.455   8.530  0.00  0.00    +0.248 C 
ATOM     30  O   UNL     1      11.326  26.170   9.176  0.00  0.00    -0.270 OA
ATOM     31  H   UNL     1      10.036  23.595   7.857  0.00  0.00    +0.155 HD
BRANCH  14  15
ATOM     15  C   UNL     1       9.300  26.075   8.056  0.00  0.00    +0.037 A 
ATOM     16  C   UNL     1       8.810  25.858   6.693  0.00  0.00    +0.013 A 
ATOM     17  C   UNL     1       7.587  26.483   6.256  0.00  0.00    +0.005 A 
ATOM     18  C   UNL     1       6.843  27.330   7.186  0.00  0.00    -0.033 A 
ATOM     28  C   UNL     1       7.350  27.524   8.535  0.00  0.00    +0.005 A 
ATOM     29  C   UNL     1       8.549  26.914   8.966  0.00  0.00    +0.013 A 
BRANCH  18  19
ATOM     19  C   UNL     1       5.539  28.052   6.799  0.00  0.00    +0.119 C 
BRANCH  19  20
ATOM     20  N   UNL     1       4.259  27.464   7.294  0.00  0.00    -0.302 NA
ATOM     21  C   UNL     1       3.675  26.448   6.307  0.00  0.00    +0.066 C 
ATOM     22  C   UNL     1       2.348  25.826   6.851  0.00  0.00    -0.064 C 
ATOM     23  N   UNL     1       1.343  26.943   7.135  0.00  0.00    +0.379 N 
ATOM     24  C   UNL     1       0.074  26.358   7.591  0.00  0.00    -0.096 C 
ATOM     25  H   UNL     1       1.145  27.473   6.174  0.00  0.00    -0.082 HD
ATOM     26  C   UNL     1       1.916  27.959   8.113  0.00  0.00    -0.064 C 
ATOM     27  C   UNL     1       3.250  28.550   7.577  0.00  0.00    +0.066 C 
ENDBRANCH  19  20
ENDBRANCH  18  19
ENDBRANCH  14  15
ENDBRANCH  12  13
TORSDOF 6
ENDMDL
MODEL 5
REMARK VINA RESULT:      -8.3      4.056     12.400
REMARK  Name = C:\Users\Docking\Desktop\test protocol\1iep_ligandH.pdb
REMARK  8 active torsions:
REMARK  status: ('A' for Active; 'I' for Inactive)
REMARK    1  A    between atoms: _5  and  _11
REMARK    2  A    between atoms: _19  and  _21
REMARK    3  A    between atoms: _22  and  _66
REMARK    4  A    between atoms: _27  and  _30
REMARK    5  A    between atoms: _32  and  _33
REMARK    6  A    between atoms: _38  and  _43
REMARK    7  A    between atoms: _43  and  _46
REMARK    8  A    between atoms: _53  and  _55
REMARK                            x       y       z     vdW  Elec       q    Type
REMARK                         _______ _______ _______ _____ _____    ______ ____
ROOT
ATOM     10  C   UNL     1      12.473  23.251   8.217  0.00  0.00    +0.038 A 
ATOM     11  C   UNL     1      13.659  23.511   7.484  0.00  0.00    +0.047 A 
ATOM     12  C   UNL     1      14.966  23.158   8.016  0.00  0.00    +0.035 A 
ATOM     32  C   UNL     1      15.028  22.538   9.298  0.00  0.00    +0.024 A 
ATOM     33  C   UNL     1      13.832  22.267  10.058  0.00  0.00    +0.007 A 
ATOM     34  C   UNL     1      12.541  22.616   9.539  0.00  0.00    -0.029 A 
ATOM     35  C   UNL     1      11.294  22.308  10.400  0.00  0.00    +0.045 C 
ENDROOT
BRANCH  10   9
ATOM      4  C   UNL     1       8.829  26.317   7.623  0.00  0.00    +0.077 A 
ATOM      5  C   UNL     1       9.408  27.272   8.524  0.00  0.00    +0.048 A 
ATOM      6  C   UNL     1      10.641  26.932   9.125  0.00  0.00    +0.116 A 
ATOM      7  N   UNL     1      11.241  25.725   8.839  0.00  0.00    -0.223 NA
ATOM      8  C   UNL     1      10.655  24.827   7.966  0.00  0.00    +0.220 A 
ATOM      9  N   UNL     1      11.245  23.611   7.658  0.00  0.00    -0.283 N 
ATOM     36  H   UNL     1      10.777  22.972   7.015  0.00  0.00    +0.155 HD
ATOM     37  N   UNL     1       9.477  25.127   7.381  0.00  0.00    -0.214 NA
BRANCH   4   3
ATOM      1  C   UNL     1       5.035  26.892   6.863  0.00  0.00    +0.020 A 
ATOM      2  C   UNL     1       6.260  26.686   7.602  0.00  0.00    +0.013 A 
ATOM      3  C   UNL     1       7.532  26.532   6.907  0.00  0.00    +0.019 A 
ATOM     38  C   UNL     1       7.530  26.594   5.453  0.00  0.00    +0.120 A 
ATOM     39  N   UNL     1       6.335  26.792   4.769  0.00  0.00    -0.263 NA
ATOM     40  C   UNL     1       5.105  26.939   5.427  0.00  0.00    +0.111 A 
ENDBRANCH   4   3
ENDBRANCH  10   9
BRANCH  12  13
ATOM     13  N   UNL     1      16.205  23.405   7.321  0.00  0.00    -0.281 N 
ATOM     14  C   UNL     1      16.691  22.764   6.193  0.00  0.00    +0.248 C 
ATOM     30  O   UNL     1      16.230  21.730   5.733  0.00  0.00    -0.270 OA
ATOM     31  H   UNL     1      16.795  24.141   7.708  0.00  0.00    +0.155 HD
BRANCH  14  15
ATOM     15  C   UNL     1      17.868  23.348   5.482  0.00  0.00    +0.037 A 
ATOM     16  C   UNL     1      17.774  24.635   4.787  0.00  0.00    +0.013 A 
ATOM     17  C   UNL     1      18.920  25.168   4.094  0.00  0.00    +0.005 A 
ATOM     18  C   UNL     1      20.172  24.414   4.094  0.00  0.00    -0.033 A 
ATOM     28  C   UNL     1      20.238  23.143   4.796  0.00  0.00    +0.005 A 
ATOM     29  C   UNL     1      19.117  22.617   5.475  0.00  0.00    +0.013 A 
BRANCH  18  19
ATOM     19  C   UNL     1      21.439  24.896   3.363  0.00  0.00    +0.119 C 
BRANCH  19  20
ATOM     20  N   UNL     1      22.318  23.852   2.758  0.00  0.00    -0.302 NA
ATOM     21  C   UNL     1      23.740  23.900   3.325  0.00  0.00    +0.066 C 
ATOM     22  C   UNL     1      24.641  22.786   2.698  0.00  0.00    -0.064 C 
ATOM     23  N   UNL     1      24.658  22.945   1.176  0.00  0.00    +0.379 N 
ATOM     24  C   UNL     1      25.550  21.935   0.588  0.00  0.00    -0.096 C 
ATOM     25  H   UNL     1      25.085  23.949   0.946  0.00  0.00    -0.082 HD
ATOM     26  C   UNL     1      23.248  22.901   0.605  0.00  0.00    -0.064 C 
ATOM     27  C   UNL     1      22.354  23.993   1.256  0.00  0.00    +0.066 C 
ENDBRANCH  19  20
ENDBRANCH  18  19
ENDBRANCH  14  15
ENDBRANCH  12  13
TORSDOF 6
ENDMDL
