MODEL 1
REMARK VINA RESULT:      -8.4      0.000      0.000
REMARK  Name = C:\Users\Docking\Desktop\test protocol\1iep_ligandH.pdb
REMARK  8 active torsions:
REMARK  status: ('A' for Active; 'I' for Inactive)
REMARK    1  A    between atoms: _5  and  _11
REMARK    2  A    between atoms: _19  and  _21
REMARK    3  A    between atoms: _22  and  _66
REMARK    4  A    between atoms: _27  and  _30
REMARK    5  A    between atoms: _32  and  _33
REMARK    6  A    between atoms: _38  and  _43
REMARK    7  A    between atoms: _43  and  _46
REMARK    8  A    between atoms: _53  and  _55
REMARK                            x       y       z     vdW  Elec       q    Type
REMARK                         _______ _______ _______ _____ _____    ______ ____
ROOT
ATOM     10  C   UNL     1      20.071  25.506   3.700  0.00  0.00    +0.038 A 
ATOM     11  C   UNL     1      18.834  25.274   4.355  0.00  0.00    +0.047 A 
ATOM     12  C   UNL     1      18.195  23.969   4.314  0.00  0.00    +0.035 A 
ATOM     32  C   UNL     1      18.844  22.920   3.600  0.00  0.00    +0.024 A 
ATOM     33  C   UNL     1      20.101  23.138   2.928  0.00  0.00    +0.007 A 
ATOM     34  C   UNL     1      20.736  24.425   2.962  0.00  0.00    -0.029 A 
ATOM     35  C   UNL     1      22.080  24.603   2.219  0.00  0.00    +0.045 C 
ENDROOT
BRANCH  10   9
ATOM      4  C   UNL     1      21.144  29.776   1.789  0.00  0.00    +0.077 A 
ATOM      5  C   UNL     1      20.542  29.432   0.534  0.00  0.00    +0.048 A 
ATOM      6  C   UNL     1      19.974  28.143   0.418  0.00  0.00    +0.116 A 
ATOM      7  N   UNL     1      20.010  27.273   1.486  0.00  0.00    -0.223 NA
ATOM      8  C   UNL     1      20.600  27.636   2.682  0.00  0.00    +0.220 A 
ATOM      9  N   UNL     1      20.641  26.779   3.772  0.00  0.00    -0.283 N 
ATOM     36  H   UNL     1      21.091  27.082   4.635  0.00  0.00    +0.155 HD
ATOM     37  N   UNL     1      21.151  28.860   2.818  0.00  0.00    -0.214 NA
BRANCH   4   3
ATOM      1  C   UNL     1      23.204  33.080   1.412  0.00  0.00    +0.020 A 
ATOM      2  C   UNL     1      22.611  31.802   1.094  0.00  0.00    +0.013 A 
ATOM      3  C   UNL     1      21.783  31.102   2.067  0.00  0.00    +0.019 A 
ATOM     38  C   UNL     1      21.573  31.727   3.364  0.00  0.00    +0.120 A 
ATOM     39  N   UNL     1      22.158  32.958   3.643  0.00  0.00    -0.263 NA
ATOM     40  C   UNL     1      22.958  33.640   2.715  0.00  0.00    +0.111 A 
ENDBRANCH   4   3
ENDBRANCH  10   9
BRANCH  12  13
ATOM     13  N   UNL     1      16.935  23.676   4.953  0.00  0.00    -0.281 N 
ATOM     14  C   UNL     1      16.701  22.839   6.031  0.00  0.00    +0.248 C 
ATOM     30  O   UNL     1      17.515  22.045   6.479  0.00  0.00    -0.270 OA
ATOM     31  H   UNL     1      16.117  24.143   4.562  0.00  0.00    +0.155 HD
BRANCH  14  15
ATOM     15  C   UNL     1      15.366  22.880   6.701  0.00  0.00    +0.037 A 
ATOM     16  C   UNL     1      15.245  23.121   8.141  0.00  0.00    +0.013 A 
ATOM     17  C   UNL     1      13.945  23.139   8.765  0.00  0.00    +0.005 A 
ATOM     18  C   UNL     1      12.755  22.916   7.947  0.00  0.00    -0.033 A 
ATOM     28  C   UNL     1      12.904  22.684   6.520  0.00  0.00    +0.005 A 
ATOM     29  C   UNL     1      14.176  22.665   5.905  0.00  0.00    +0.013 A 
BRANCH  18  19
ATOM     19  C   UNL     1      11.331  22.897   8.531  0.00  0.00    +0.119 C 
BRANCH  19  20
ATOM     20  N   UNL     1      10.897  24.091   9.317  0.00  0.00    -0.302 NA
ATOM     21  C   UNL     1       9.542  23.871   9.994  0.00  0.00    +0.066 C 
ATOM     22  C   UNL     1       9.114  25.122  10.830  0.00  0.00    -0.064 C 
ATOM     23  N   UNL     1       9.072  26.350   9.919  0.00  0.00    +0.379 N 
ATOM     24  C   UNL     1       8.615  27.516  10.689  0.00  0.00    -0.096 C 
ATOM     25  H   UNL     1       8.318  26.154   9.122  0.00  0.00    -0.082 HD
ATOM     26  C   UNL     1      10.416  26.574   9.239  0.00  0.00    -0.064 C 
ATOM     27  C   UNL     1      10.845  25.314   8.436  0.00  0.00    +0.066 C 
ENDBRANCH  19  20
ENDBRANCH  18  19
ENDBRANCH  14  15
ENDBRANCH  12  13
TORSDOF 6
ENDMDL
MODEL 2
REMARK VINA RESULT:      -8.3      7.941     12.459
REMARK  Name = C:\Users\Docking\Desktop\test protocol\1iep_ligandH.pdb
REMARK  8 active torsions:
REMARK  status: ('A' for Active; 'I' for Inactive)
REMARK    1  A    between atoms: _5  and  _11
REMARK    2  A    between atoms: _19  and  _21
REMARK    3  A    between atoms: _22  and  _66
REMARK    4  A    between atoms: _27  and  _30
REMARK    5  A    between atoms: _32  and  _33
REMARK    6  A    between atoms: _38  and  _43
REMARK    7  A    between atoms: _43  and  _46
REMARK    8  A    between atoms: _53  and  _55
REMARK                            x       y       z     vdW  Elec       q    Type
REMARK                         _______ _______ _______ _____ _____    ______ ____
ROOT
ATOM     10  C   UNL     1      14.202  21.206   8.305  0.00  0.00    +0.038 A 
ATOM     11  C   UNL     1      15.432  21.355   8.993  0.00  0.00    +0.047 A 
ATOM     12  C   UNL     1      16.318  20.221   9.207  0.00  0.00    +0.035 A 
ATOM     32  C   UNL     1      15.919  18.949   8.702  0.00  0.00    +0.024 A 
ATOM     33  C   UNL     1      14.671  18.779   8.001  0.00  0.00    +0.007 A 
ATOM     34  C   UNL     1      13.792  19.894   7.790  0.00  0.00    -0.029 A 
ATOM     35  C   UNL     1      12.463  19.652   7.037  0.00  0.00    +0.045 C 
ENDROOT
BRANCH  10   9
ATOM      4  C   UNL     1      10.648  24.120   9.689  0.00  0.00    +0.077 A 
ATOM      5  C   UNL     1      10.366  23.323  10.848  0.00  0.00    +0.048 A 
ATOM      6  C   UNL     1      11.154  22.167  11.048  0.00  0.00    +0.116 A 
ATOM      7  N   UNL     1      12.147  21.842  10.149  0.00  0.00    -0.223 NA
ATOM      8  C   UNL     1      12.391  22.632   9.041  0.00  0.00    +0.220 A 
ATOM      9  N   UNL     1      13.390  22.329   8.128  0.00  0.00    -0.283 N 
ATOM     36  H   UNL     1      13.534  22.933   7.320  0.00  0.00    +0.155 HD
ATOM     37  N   UNL     1      11.652  23.740   8.827  0.00  0.00    -0.214 NA
BRANCH   4   3
ATOM      1  C   UNL     1       8.433  27.335   9.933  0.00  0.00    +0.020 A 
ATOM      2  C   UNL     1       9.133  26.131  10.320  0.00  0.00    +0.013 A 
ATOM      3  C   UNL     1       9.904  25.372   9.343  0.00  0.00    +0.019 A 
ATOM     38  C   UNL     1       9.948  25.863   7.974  0.00  0.00    +0.120 A 
ATOM     39  N   UNL     1       9.263  27.024   7.631  0.00  0.00    -0.263 NA
ATOM     40  C   UNL     1       8.516  27.762   8.561  0.00  0.00    +0.111 A 
ENDBRANCH   4   3
ENDBRANCH  10   9
BRANCH  12  13
ATOM     13  N   UNL     1      17.576  20.311   9.905  0.00  0.00    -0.281 N 
ATOM     14  C   UNL     1      18.830  20.561   9.373  0.00  0.00    +0.248 C 
ATOM     30  O   UNL     1      19.092  20.534   8.179  0.00  0.00    -0.270 OA
ATOM     31  H   UNL     1      17.537  20.173  10.915  0.00  0.00    +0.155 HD
BRANCH  14  15
ATOM     15  C   UNL     1      19.960  20.871  10.301  0.00  0.00    +0.037 A 
ATOM     16  C   UNL     1      20.297  19.979  11.413  0.00  0.00    +0.013 A 
ATOM     17  C   UNL     1      21.381  20.311  12.304  0.00  0.00    +0.005 A 
ATOM     18  C   UNL     1      22.137  21.542  12.084  0.00  0.00    -0.033 A 
ATOM     28  C   UNL     1      21.784  22.406  10.970  0.00  0.00    +0.005 A 
ATOM     29  C   UNL     1      20.722  22.084  10.095  0.00  0.00    +0.013 A 
BRANCH  18  19
ATOM     19  C   UNL     1      23.295  21.986  12.997  0.00  0.00    +0.119 C 
BRANCH  19  20
ATOM     20  N   UNL     1      23.334  21.418  14.378  0.00  0.00    -0.302 NA
ATOM     21  C   UNL     1      22.585  22.299  15.382  0.00  0.00    +0.066 C 
ATOM     22  C   UNL     1      22.616  21.680  16.817  0.00  0.00    -0.064 C 
ATOM     23  N   UNL     1      24.068  21.479  17.251  0.00  0.00    +0.379 N 
ATOM     24  C   UNL     1      24.102  20.950  18.623  0.00  0.00    -0.096 C 
ATOM     25  H   UNL     1      24.560  22.479  17.262  0.00  0.00    -0.082 HD
ATOM     26  C   UNL     1      24.821  20.606  16.257  0.00  0.00    -0.064 C 
ATOM     27  C   UNL     1      24.759  21.216  14.828  0.00  0.00    +0.066 C 
ENDBRANCH  19  20
ENDBRANCH  18  19
ENDBRANCH  14  15
ENDBRANCH  12  13
TORSDOF 6
ENDMDL
MODEL 3
REMARK VINA RESULT:      -8.2      4.042     12.601
REMARK  Name = C:\Users\Docking\Desktop\test protocol\1iep_ligandH.pdb
REMARK  8 active torsions:
REMARK  status: ('A' for Active; 'I' for Inactive)
REMARK    1  A    between atoms: _5  and  _11
REMARK    2  A    between atoms: _19  and  _21
REMARK    3  A    between atoms: _22  and  _66
REMARK    4  A    between atoms: _27  and  _30
REMARK    5  A    between atoms: _32  and  _33
REMARK    6  A    between atoms: _38  and  _43
REMARK    7  A    between atoms: _43  and  _46
REMARK    8  A    between atoms: _53  and  _55
REMARK                            x       y       z     vdW  Elec       q    Type
REMARK                         _______ _______ _______ _____ _____    ______ ____
ROOT
ATOM     10  C   UNL     1      12.472  23.113   8.285  0.00  0.00    +0.038 A 
ATOM     11  C   UNL     1      13.659  23.391   7.560  0.00  0.00    +0.047 A 
ATOM     12  C   UNL     1      14.964  23.003   8.075  0.00  0.00    +0.035 A 
ATOM     32  C   UNL     1      15.022  22.331   9.330  0.00  0.00    +0.024 A 
ATOM     33  C   UNL     1      13.825  22.042  10.081  0.00  0.00    +0.007 A 
ATOM     34  C   UNL     1      12.536  22.424   9.580  0.00  0.00    -0.029 A 
ATOM     35  C   UNL     1      11.287  22.095  10.430  0.00  0.00    +0.045 C 
ENDROOT
BRANCH  10   9
ATOM      4  C   UNL     1       8.875  26.253   7.800  0.00  0.00    +0.077 A 
ATOM      5  C   UNL     1       9.474  27.173   8.724  0.00  0.00    +0.048 A 
ATOM      6  C   UNL     1      10.705  26.797   9.307  0.00  0.00    +0.116 A 
ATOM      7  N   UNL     1      11.284  25.589   8.983  0.00  0.00    -0.223 NA
ATOM      8  C   UNL     1      10.678  24.725   8.090  0.00  0.00    +0.220 A 
ATOM      9  N   UNL     1      11.247  23.508   7.744  0.00  0.00    -0.283 N 
ATOM     36  H   UNL     1      10.765  22.895   7.086  0.00  0.00    +0.155 HD
ATOM     37  N   UNL     1       9.502  25.060   7.520  0.00  0.00    -0.214 NA
BRANCH   4   3
ATOM      1  C   UNL     1       5.112  27.048   7.082  0.00  0.00    +0.020 A 
ATOM      2  C   UNL     1       6.339  26.808   7.807  0.00  0.00    +0.013 A 
ATOM      3  C   UNL     1       7.577  26.509   7.099  0.00  0.00    +0.019 A 
ATOM     38  C   UNL     1       7.540  26.461   5.645  0.00  0.00    +0.120 A 
ATOM     39  N   UNL     1       6.344  26.695   4.974  0.00  0.00    -0.263 NA
ATOM     40  C   UNL     1       5.146  26.982   5.645  0.00  0.00    +0.111 A 
ENDBRANCH   4   3
ENDBRANCH  10   9
BRANCH  12  13
ATOM     13  N   UNL     1      16.204  23.265   7.387  0.00  0.00    -0.281 N 
ATOM     14  C   UNL     1      16.748  22.573   6.318  0.00  0.00    +0.248 C 
ATOM     30  O   UNL     1      16.351  21.486   5.925  0.00  0.00    -0.270 OA
ATOM     31  H   UNL     1      16.746  24.058   7.731  0.00  0.00    +0.155 HD
BRANCH  14  15
ATOM     15  C   UNL     1      17.909  23.167   5.589  0.00  0.00    +0.037 A 
ATOM     16  C   UNL     1      17.775  24.416   4.835  0.00  0.00    +0.013 A 
ATOM     17  C   UNL     1      18.907  24.958   4.126  0.00  0.00    +0.005 A 
ATOM     18  C   UNL     1      20.185  24.251   4.170  0.00  0.00    -0.033 A 
ATOM     28  C   UNL     1      20.291  23.017   4.930  0.00  0.00    +0.005 A 
ATOM     29  C   UNL     1      19.184  22.482   5.625  0.00  0.00    +0.013 A 
BRANCH  18  19
ATOM     19  C   UNL     1      21.440  24.746   3.426  0.00  0.00    +0.119 C 
BRANCH  19  20
ATOM     20  N   UNL     1      22.349  23.708   2.855  0.00  0.00    -0.302 NA
ATOM     21  C   UNL     1      23.820  24.002   3.160  0.00  0.00    +0.066 C 
ATOM     22  C   UNL     1      24.756  22.895   2.574  0.00  0.00    -0.064 C 
ATOM     23  N   UNL     1      24.527  22.784   1.065  0.00  0.00    +0.379 N 
ATOM     24  C   UNL     1      25.446  21.785   0.502  0.00  0.00    -0.096 C 
ATOM     25  H   UNL     1      24.780  23.771   0.612  0.00  0.00    -0.082 HD
ATOM     26  C   UNL     1      23.066  22.494   0.753  0.00  0.00    -0.064 C 
ATOM     27  C   UNL     1      22.143  23.585   1.365  0.00  0.00    +0.066 C 
ENDBRANCH  19  20
ENDBRANCH  18  19
ENDBRANCH  14  15
ENDBRANCH  12  13
TORSDOF 6
ENDMDL
MODEL 4
REMARK VINA RESULT:      -8.2      4.065      8.021
REMARK  Name = C:\Users\Docking\Desktop\test protocol\1iep_ligandH.pdb
REMARK  8 active torsions:
REMARK  status: ('A' for Active; 'I' for Inactive)
REMARK    1  A    between atoms: _5  and  _11
REMARK    2  A    between atoms: _19  and  _21
REMARK    3  A    between atoms: _22  and  _66
REMARK    4  A    between atoms: _27  and  _30
REMARK    5  A    between atoms: _32  and  _33
REMARK    6  A    between atoms: _38  and  _43
REMARK    7  A    between atoms: _43  and  _46
REMARK    8  A    between atoms: _53  and  _55
REMARK                            x       y       z     vdW  Elec       q    Type
REMARK                         _______ _______ _______ _____ _____    ______ ____
ROOT
ATOM     10  C   UNL     1      14.750  22.924   8.455  0.00  0.00    +0.038 A 
ATOM     11  C   UNL     1      13.579  23.694   8.237  0.00  0.00    +0.047 A 
ATOM     12  C   UNL     1      12.305  23.307   8.822  0.00  0.00    +0.035 A 
ATOM     32  C   UNL     1      12.260  22.130   9.625  0.00  0.00    +0.024 A 
ATOM     33  C   UNL     1      13.440  21.335   9.856  0.00  0.00    +0.007 A 
ATOM     34  C   UNL     1      14.700  21.711   9.280  0.00  0.00    -0.029 A 
ATOM     35  C   UNL     1      15.932  20.818   9.556  0.00  0.00    +0.045 C 
ENDROOT
BRANCH  10   9
ATOM      4  C   UNL     1      17.905  22.969   4.838  0.00  0.00    +0.077 A 
ATOM      5  C   UNL     1      17.113  22.061   4.058  0.00  0.00    +0.048 A 
ATOM      6  C   UNL     1      15.905  21.600   4.628  0.00  0.00    +0.116 A 
ATOM      7  N   UNL     1      15.526  22.023   5.883  0.00  0.00    -0.223 NA
ATOM      8  C   UNL     1      16.313  22.898   6.609  0.00  0.00    +0.220 A 
ATOM      9  N   UNL     1      15.948  23.343   7.870  0.00  0.00    -0.283 N 
ATOM     36  H   UNL     1      16.559  23.983   8.376  0.00  0.00    +0.155 HD
ATOM     37  N   UNL     1      17.472  23.351   6.088  0.00  0.00    -0.214 NA
BRANCH   4   3
ATOM      1  C   UNL     1      21.692  23.911   4.581  0.00  0.00    +0.020 A 
ATOM      2  C   UNL     1      20.464  23.331   5.074  0.00  0.00    +0.013 A 
ATOM      3  C   UNL     1      19.205  23.546   4.372  0.00  0.00    +0.019 A 
ATOM     38  C   UNL     1      19.223  24.359   3.165  0.00  0.00    +0.120 A 
ATOM     39  N   UNL     1      20.421  24.906   2.715  0.00  0.00    -0.263 NA
ATOM     40  C   UNL     1      21.639  24.707   3.383  0.00  0.00    +0.111 A 
ENDBRANCH   4   3
ENDBRANCH  10   9
BRANCH  12  13
ATOM     13  N   UNL     1      11.081  24.044   8.629  0.00  0.00    -0.281 N 
ATOM     14  C   UNL     1      10.873  25.405   8.786  0.00  0.00    +0.248 C 
ATOM     30  O   UNL     1      11.661  26.167   9.325  0.00  0.00    -0.270 OA
ATOM     31  H   UNL     1      10.269  23.497   8.342  0.00  0.00    +0.155 HD
BRANCH  14  15
ATOM     15  C   UNL     1       9.599  26.003   8.283  0.00  0.00    +0.037 A 
ATOM     16  C   UNL     1       8.741  26.808   9.156  0.00  0.00    +0.013 A 
ATOM     17  C   UNL     1       7.509  27.360   8.651  0.00  0.00    +0.005 A 
ATOM     18  C   UNL     1       7.127  27.108   7.263  0.00  0.00    -0.033 A 
ATOM     28  C   UNL     1       8.000  26.310   6.417  0.00  0.00    +0.005 A 
ATOM     29  C   UNL     1       9.208  25.767   6.909  0.00  0.00    +0.013 A 
BRANCH  18  19
ATOM     19  C   UNL     1       5.820  27.639   6.645  0.00  0.00    +0.119 C 
BRANCH  19  20
ATOM     20  N   UNL     1       4.542  27.039   7.130  0.00  0.00    -0.302 NA
ATOM     21  C   UNL     1       3.879  26.160   6.066  0.00  0.00    +0.066 C 
ATOM     22  C   UNL     1       2.555  25.522   6.598  0.00  0.00    -0.064 C 
ATOM     23  N   UNL     1       1.604  26.631   7.052  0.00  0.00    +0.379 N 
ATOM     24  C   UNL     1       0.336  26.038   7.498  0.00  0.00    -0.096 C 
ATOM     25  H   UNL     1       1.385  27.272   6.166  0.00  0.00    -0.082 HD
ATOM     26  C   UNL     1       2.256  27.512   8.108  0.00  0.00    -0.064 C 
ATOM     27  C   UNL     1       3.586  28.117   7.580  0.00  0.00    +0.066 C 
ENDBRANCH  19  20
ENDBRANCH  18  19
ENDBRANCH  14  15
ENDBRANCH  12  13
TORSDOF 6
ENDMDL
MODEL 5
REMARK VINA RESULT:      -8.2      4.164     14.243
REMARK  Name = C:\Users\Docking\Desktop\test protocol\1iep_ligandH.pdb
REMARK  8 active torsions:
REMARK  status: ('A' for Active; 'I' for Inactive)
REMARK    1  A    between atoms: _5  and  _11
REMARK    2  A    between atoms: _19  and  _21
REMARK    3  A    between atoms: _22  and  _66
REMARK    4  A    between atoms: _27  and  _30
REMARK    5  A    between atoms: _32  and  _33
REMARK    6  A    between atoms: _38  and  _43
REMARK    7  A    between atoms: _43  and  _46
REMARK    8  A    between atoms: _53  and  _55
REMARK                            x       y       z     vdW  Elec       q    Type
REMARK                         _______ _______ _______ _____ _____    ______ ____
ROOT
ATOM     10  C   UNL     1      11.557  22.682  10.469  0.00  0.00    +0.038 A 
ATOM     11  C   UNL     1      12.660  22.586   9.583  0.00  0.00    +0.047 A 
ATOM     12  C   UNL     1      12.999  23.677   8.682  0.00  0.00    +0.035 A 
ATOM     32  C   UNL     1      12.194  24.853   8.712  0.00  0.00    +0.024 A 
ATOM     33  C   UNL     1      11.068  24.967   9.605  0.00  0.00    +0.007 A 
ATOM     34  C   UNL     1      10.728  23.893  10.495  0.00  0.00    -0.029 A 
ATOM     35  C   UNL     1       9.506  24.068  11.427  0.00  0.00    +0.045 C 
ENDROOT
BRANCH  10   9
ATOM      4  C   UNL     1       9.302  18.566  11.470  0.00  0.00    +0.077 A 
ATOM      5  C   UNL     1       8.601  18.576  10.218  0.00  0.00    +0.048 A 
ATOM      6  C   UNL     1       8.844  19.663   9.348  0.00  0.00    +0.116 A 
ATOM      7  N   UNL     1       9.724  20.658   9.713  0.00  0.00    -0.223 NA
ATOM      8  C   UNL     1      10.382  20.618  10.928  0.00  0.00    +0.220 A 
ATOM      9  N   UNL     1      11.277  21.605  11.312  0.00  0.00    -0.283 N 
ATOM     36  H   UNL     1      11.737  21.543  12.220  0.00  0.00    +0.155 HD
ATOM     37  N   UNL     1      10.166  19.592  11.778  0.00  0.00    -0.214 NA
BRANCH   4   3
ATOM      1  C   UNL     1       8.018  15.438  13.438  0.00  0.00    +0.020 A 
ATOM      2  C   UNL     1       8.117  16.461  12.423  0.00  0.00    +0.013 A 
ATOM      3  C   UNL     1       9.153  17.484  12.495  0.00  0.00    +0.019 A 
ATOM     38  C   UNL     1      10.081  17.442  13.615  0.00  0.00    +0.120 A 
ATOM     39  N   UNL     1       9.961  16.446  14.579  0.00  0.00    -0.263 NA
ATOM     40  C   UNL     1       8.966  15.458  14.521  0.00  0.00    +0.111 A 
ENDBRANCH   4   3
ENDBRANCH  10   9
BRANCH  12  13
ATOM     13  N   UNL     1      14.102  23.633   7.754  0.00  0.00    -0.281 N 
ATOM     14  C   UNL     1      14.228  22.854   6.616  0.00  0.00    +0.248 C 
ATOM     30  O   UNL     1      13.498  21.914   6.338  0.00  0.00    -0.270 OA
ATOM     31  H   UNL     1      14.886  24.252   7.962  0.00  0.00    +0.155 HD
BRANCH  14  15
ATOM     15  C   UNL     1      15.333  23.152   5.655  0.00  0.00    +0.037 A 
ATOM     16  C   UNL     1      15.066  23.350   4.228  0.00  0.00    +0.013 A 
ATOM     17  C   UNL     1      16.153  23.620   3.320  0.00  0.00    +0.005 A 
ATOM     18  C   UNL     1      17.517  23.694   3.837  0.00  0.00    -0.033 A 
ATOM     28  C   UNL     1      17.753  23.498   5.258  0.00  0.00    +0.005 A 
ATOM     29  C   UNL     1      16.690  23.233   6.151  0.00  0.00    +0.013 A 
BRANCH  18  19
ATOM     19  C   UNL     1      18.739  23.956   2.938  0.00  0.00    +0.119 C 
BRANCH  19  20
ATOM     20  N   UNL     1      19.358  25.314   3.003  0.00  0.00    -0.302 NA
ATOM     21  C   UNL     1      18.406  26.403   2.498  0.00  0.00    +0.066 C 
ATOM     22  C   UNL     1      19.061  27.819   2.594  0.00  0.00    -0.064 C 
ATOM     23  N   UNL     1      20.367  27.829   1.798  0.00  0.00    +0.379 N 
ATOM     24  C   UNL     1      20.955  29.176   1.838  0.00  0.00    -0.096 C 
ATOM     25  H   UNL     1      20.117  27.601   0.736  0.00  0.00    -0.082 HD
ATOM     26  C   UNL     1      21.318  26.748   2.291  0.00  0.00    -0.064 C 
ATOM     27  C   UNL     1      20.647  25.348   2.219  0.00  0.00    +0.066 C 
ENDBRANCH  19  20
ENDBRANCH  18  19
ENDBRANCH  14  15
ENDBRANCH  12  13
TORSDOF 6
ENDMDL
