MODEL 1
REMARK VINA RESULT:      -8.2      0.000      0.000
REMARK  Name = C:\Users\Docking\Desktop\test protocol\1iep_ligandH.pdb
REMARK  8 active torsions:
REMARK  status: ('A' for Active; 'I' for Inactive)
REMARK    1  A    between atoms: _5  and  _11
REMARK    2  A    between atoms: _19  and  _21
REMARK    3  A    between atoms: _22  and  _66
REMARK    4  A    between atoms: _27  and  _30
REMARK    5  A    between atoms: _32  and  _33
REMARK    6  A    between atoms: _38  and  _43
REMARK    7  A    between atoms: _43  and  _46
REMARK    8  A    between atoms: _53  and  _55
REMARK                            x       y       z     vdW  Elec       q    Type
REMARK                         _______ _______ _______ _____ _____    ______ ____
ROOT
ATOM     10  C   UNL     1      19.974  25.499   4.176  0.00  0.00    +0.038 A 
ATOM     11  C   UNL     1      18.679  25.309   4.723  0.00  0.00    +0.047 A 
ATOM     12  C   UNL     1      18.073  23.988   4.782  0.00  0.00    +0.035 A 
ATOM     32  C   UNL     1      18.816  22.881   4.278  0.00  0.00    +0.024 A 
ATOM     33  C   UNL     1      20.134  23.056   3.718  0.00  0.00    +0.007 A 
ATOM     34  C   UNL     1      20.735  24.357   3.655  0.00  0.00    -0.029 A 
ATOM     35  C   UNL     1      22.148  24.487   3.038  0.00  0.00    +0.045 C 
ENDROOT
BRANCH  10   9
ATOM      4  C   UNL     1      21.077  29.568   1.882  0.00  0.00    +0.077 A 
ATOM      5  C   UNL     1      20.573  29.070   0.634  0.00  0.00    +0.048 A 
ATOM      6  C   UNL     1      20.045  27.760   0.624  0.00  0.00    +0.116 A 
ATOM      7  N   UNL     1      20.027  27.012   1.781  0.00  0.00    -0.223 NA
ATOM      8  C   UNL     1      20.523  27.521   2.967  0.00  0.00    +0.220 A 
ATOM      9  N   UNL     1      20.507  26.789   4.145  0.00  0.00    -0.283 N 
ATOM     36  H   UNL     1      20.890  27.198   4.997  0.00  0.00    +0.155 HD
ATOM     37  N   UNL     1      21.034  28.769   3.003  0.00  0.00    -0.214 NA
BRANCH   4   3
ATOM      1  C   UNL     1      22.983  32.921   1.231  0.00  0.00    +0.020 A 
ATOM      2  C   UNL     1      22.439  31.600   1.014  0.00  0.00    +0.013 A 
ATOM      3  C   UNL     1      21.664  30.934   2.053  0.00  0.00    +0.019 A 
ATOM     38  C   UNL     1      21.457  31.637   3.310  0.00  0.00    +0.120 A 
ATOM     39  N   UNL     1      21.994  32.908   3.491  0.00  0.00    -0.263 NA
ATOM     40  C   UNL     1      22.743  33.558   2.499  0.00  0.00    +0.111 A 
ENDBRANCH   4   3
ENDBRANCH  10   9
BRANCH  12  13
ATOM     13  N   UNL     1      16.759  23.736   5.318  0.00  0.00    -0.281 N 
ATOM     14  C   UNL     1      16.421  22.965   6.418  0.00  0.00    +0.248 C 
ATOM     30  O   UNL     1      17.185  22.197   6.985  0.00  0.00    -0.270 OA
ATOM     31  H   UNL     1      15.983  24.179   4.826  0.00  0.00    +0.155 HD
BRANCH  14  15
ATOM     15  C   UNL     1      15.030  23.047   6.958  0.00  0.00    +0.037 A 
ATOM     16  C   UNL     1      14.776  23.088   8.400  0.00  0.00    +0.013 A 
ATOM     17  C   UNL     1      13.423  23.151   8.895  0.00  0.00    +0.005 A 
ATOM     18  C   UNL     1      12.314  23.173   7.945  0.00  0.00    -0.033 A 
ATOM     28  C   UNL     1      12.595  23.136   6.519  0.00  0.00    +0.005 A 
ATOM     29  C   UNL     1      13.919  23.074   6.031  0.00  0.00    +0.013 A 
BRANCH  18  19
ATOM     19  C   UNL     1      10.838  23.217   8.384  0.00  0.00    +0.119 C 
BRANCH  19  20
ATOM     20  N   UNL     1      10.361  22.132   9.291  0.00  0.00    -0.302 NA
ATOM     21  C   UNL     1      10.605  20.740   8.700  0.00  0.00    +0.066 C 
ATOM     22  C   UNL     1      10.121  19.616   9.672  0.00  0.00    -0.064 C 
ATOM     23  N   UNL     1       8.638  19.819   9.985  0.00  0.00    +0.379 N 
ATOM     24  C   UNL     1       8.165  18.731  10.853  0.00  0.00    -0.096 C 
ATOM     25  H   UNL     1       8.077  19.753   9.024  0.00  0.00    -0.082 HD
ATOM     26  C   UNL     1       8.386  21.201  10.571  0.00  0.00    -0.064 C 
ATOM     27  C   UNL     1       8.898  22.311   9.610  0.00  0.00    +0.066 C 
ENDBRANCH  19  20
ENDBRANCH  18  19
ENDBRANCH  14  15
ENDBRANCH  12  13
TORSDOF 6
ENDMDL
MODEL 2
REMARK VINA RESULT:      -8.2      2.394     14.443
REMARK  Name = C:\Users\Docking\Desktop\test protocol\1iep_ligandH.pdb
REMARK  8 active torsions:
REMARK  status: ('A' for Active; 'I' for Inactive)
REMARK    1  A    between atoms: _5  and  _11
REMARK    2  A    between atoms: _19  and  _21
REMARK    3  A    between atoms: _22  and  _66
REMARK    4  A    between atoms: _27  and  _30
REMARK    5  A    between atoms: _32  and  _33
REMARK    6  A    between atoms: _38  and  _43
REMARK    7  A    between atoms: _43  and  _46
REMARK    8  A    between atoms: _53  and  _55
REMARK                            x       y       z     vdW  Elec       q    Type
REMARK                         _______ _______ _______ _____ _____    ______ ____
ROOT
ATOM     10  C   UNL     1      11.610  22.751  10.598  0.00  0.00    +0.038 A 
ATOM     11  C   UNL     1      12.721  22.642   9.723  0.00  0.00    +0.047 A 
ATOM     12  C   UNL     1      13.082  23.728   8.826  0.00  0.00    +0.035 A 
ATOM     32  C   UNL     1      12.291  24.913   8.847  0.00  0.00    +0.024 A 
ATOM     33  C   UNL     1      11.157  25.041   9.729  0.00  0.00    +0.007 A 
ATOM     34  C   UNL     1      10.795  23.972  10.615  0.00  0.00    -0.029 A 
ATOM     35  C   UNL     1       9.566  24.162  11.534  0.00  0.00    +0.045 C 
ENDROOT
BRANCH  10   9
ATOM      4  C   UNL     1       9.404  18.590  11.524  0.00  0.00    +0.077 A 
ATOM      5  C   UNL     1       8.778  18.567  10.233  0.00  0.00    +0.048 A 
ATOM      6  C   UNL     1       9.044  19.648   9.363  0.00  0.00    +0.116 A 
ATOM      7  N   UNL     1       9.876  20.671   9.765  0.00  0.00    -0.223 NA
ATOM      8  C   UNL     1      10.462  20.664  11.017  0.00  0.00    +0.220 A 
ATOM      9  N   UNL     1      11.308  21.678  11.439  0.00  0.00    -0.283 N 
ATOM     36  H   UNL     1      11.715  21.639  12.373  0.00  0.00    +0.155 HD
ATOM     37  N   UNL     1      10.222  19.643  11.867  0.00  0.00    -0.214 NA
BRANCH   4   3
ATOM      1  C   UNL     1       9.807  16.390  14.732  0.00  0.00    +0.020 A 
ATOM      2  C   UNL     1      10.022  17.446  13.770  0.00  0.00    +0.013 A 
ATOM      3  C   UNL     1       9.223  17.518  12.553  0.00  0.00    +0.019 A 
ATOM     38  C   UNL     1       8.206  16.499  12.339  0.00  0.00    +0.120 A 
ATOM     39  N   UNL     1       8.023  15.494  13.282  0.00  0.00    -0.263 NA
ATOM     40  C   UNL     1       8.787  15.412  14.456  0.00  0.00    +0.111 A 
ENDBRANCH   4   3
ENDBRANCH  10   9
BRANCH  12  13
ATOM     13  N   UNL     1      14.195  23.670   7.910  0.00  0.00    -0.281 N 
ATOM     14  C   UNL     1      14.377  22.804   6.845  0.00  0.00    +0.248 C 
ATOM     30  O   UNL     1      13.706  21.802   6.646  0.00  0.00    -0.270 OA
ATOM     31  H   UNL     1      14.938  24.351   8.067  0.00  0.00    +0.155 HD
BRANCH  14  15
ATOM     15  C   UNL     1      15.471  23.084   5.866  0.00  0.00    +0.037 A 
ATOM     16  C   UNL     1      15.175  23.527   4.501  0.00  0.00    +0.013 A 
ATOM     17  C   UNL     1      16.249  23.773   3.571  0.00  0.00    +0.005 A 
ATOM     18  C   UNL     1      17.630  23.578   4.005  0.00  0.00    -0.033 A 
ATOM     28  C   UNL     1      17.896  23.143   5.366  0.00  0.00    +0.005 A 
ATOM     29  C   UNL     1      16.846  22.900   6.280  0.00  0.00    +0.013 A 
BRANCH  18  19
ATOM     19  C   UNL     1      18.837  23.797   3.074  0.00  0.00    +0.119 C 
BRANCH  19  20
ATOM     20  N   UNL     1      19.009  25.159   2.485  0.00  0.00    -0.302 NA
ATOM     21  C   UNL     1      20.265  25.254   1.614  0.00  0.00    +0.066 C 
ATOM     22  C   UNL     1      20.416  26.678   0.988  0.00  0.00    -0.064 C 
ATOM     23  N   UNL     1      20.453  27.722   2.105  0.00  0.00    +0.379 N 
ATOM     24  C   UNL     1      20.654  29.057   1.523  0.00  0.00    -0.096 C 
ATOM     25  H   UNL     1      21.334  27.498   2.749  0.00  0.00    -0.082 HD
ATOM     26  C   UNL     1      19.209  27.633   2.978  0.00  0.00    -0.064 C 
ATOM     27  C   UNL     1      19.052  26.205   3.572  0.00  0.00    +0.066 C 
ENDBRANCH  19  20
ENDBRANCH  18  19
ENDBRANCH  14  15
ENDBRANCH  12  13
TORSDOF 6
ENDMDL
MODEL 3
REMARK VINA RESULT:      -8.2      1.673      2.577
REMARK  Name = C:\Users\Docking\Desktop\test protocol\1iep_ligandH.pdb
REMARK  8 active torsions:
REMARK  status: ('A' for Active; 'I' for Inactive)
REMARK    1  A    between atoms: _5  and  _11
REMARK    2  A    between atoms: _19  and  _21
REMARK    3  A    between atoms: _22  and  _66
REMARK    4  A    between atoms: _27  and  _30
REMARK    5  A    between atoms: _32  and  _33
REMARK    6  A    between atoms: _38  and  _43
REMARK    7  A    between atoms: _43  and  _46
REMARK    8  A    between atoms: _53  and  _55
REMARK                            x       y       z     vdW  Elec       q    Type
REMARK                         _______ _______ _______ _____ _____    ______ ____
ROOT
ATOM     10  C   UNL     1      20.176  25.483   3.821  0.00  0.00    +0.038 A 
ATOM     11  C   UNL     1      18.977  25.233   4.536  0.00  0.00    +0.047 A 
ATOM     12  C   UNL     1      18.350  23.921   4.519  0.00  0.00    +0.035 A 
ATOM     32  C   UNL     1      18.974  22.884   3.766  0.00  0.00    +0.024 A 
ATOM     33  C   UNL     1      20.193  23.120   3.033  0.00  0.00    +0.007 A 
ATOM     34  C   UNL     1      20.815  24.414   3.044  0.00  0.00    -0.029 A 
ATOM     35  C   UNL     1      22.117  24.612   2.235  0.00  0.00    +0.045 C 
ENDROOT
BRANCH  10   9
ATOM      4  C   UNL     1      21.150  29.757   1.867  0.00  0.00    +0.077 A 
ATOM      5  C   UNL     1      20.516  29.402   0.630  0.00  0.00    +0.048 A 
ATOM      6  C   UNL     1      19.958  28.108   0.535  0.00  0.00    +0.116 A 
ATOM      7  N   UNL     1      20.034  27.241   1.604  0.00  0.00    -0.223 NA
ATOM      8  C   UNL     1      20.654  27.615   2.782  0.00  0.00    +0.220 A 
ATOM      9  N   UNL     1      20.735  26.762   3.872  0.00  0.00    -0.283 N 
ATOM     36  H   UNL     1      21.207  27.073   4.721  0.00  0.00    +0.155 HD
ATOM     37  N   UNL     1      21.196  28.845   2.897  0.00  0.00    -0.214 NA
BRANCH   4   3
ATOM      1  C   UNL     1      22.242  33.107   3.565  0.00  0.00    +0.020 A 
ATOM      2  C   UNL     1      21.608  31.824   3.369  0.00  0.00    +0.013 A 
ATOM      3  C   UNL     1      21.783  31.090   2.122  0.00  0.00    +0.019 A 
ATOM     38  C   UNL     1      22.612  31.686   1.086  0.00  0.00    +0.120 A 
ATOM     39  N   UNL     1      23.209  32.924   1.303  0.00  0.00    -0.263 NA
ATOM     40  C   UNL     1      23.047  33.641   2.498  0.00  0.00    +0.111 A 
ENDBRANCH   4   3
ENDBRANCH  10   9
BRANCH  12  13
ATOM     13  N   UNL     1      17.128  23.610   5.218  0.00  0.00    -0.281 N 
ATOM     14  C   UNL     1      16.961  22.777   6.312  0.00  0.00    +0.248 C 
ATOM     30  O   UNL     1      17.809  22.000   6.725  0.00  0.00    -0.270 OA
ATOM     31  H   UNL     1      16.284  24.060   4.864  0.00  0.00    +0.155 HD
BRANCH  14  15
ATOM     15  C   UNL     1      15.658  22.798   7.044  0.00  0.00    +0.037 A 
ATOM     16  C   UNL     1      15.602  22.652   8.501  0.00  0.00    +0.013 A 
ATOM     17  C   UNL     1      14.331  22.659   9.180  0.00  0.00    +0.005 A 
ATOM     18  C   UNL     1      13.104  22.816   8.402  0.00  0.00    -0.033 A 
ATOM     28  C   UNL     1      13.189  22.964   6.959  0.00  0.00    +0.005 A 
ATOM     29  C   UNL     1      14.433  22.956   6.289  0.00  0.00    +0.013 A 
BRANCH  18  19
ATOM     19  C   UNL     1      11.702  22.814   9.041  0.00  0.00    +0.119 C 
BRANCH  19  20
ATOM     20  N   UNL     1      10.795  23.950   8.701  0.00  0.00    -0.302 NA
ATOM     21  C   UNL     1      11.358  25.295   9.169  0.00  0.00    +0.066 C 
ATOM     22  C   UNL     1      10.406  26.475   8.785  0.00  0.00    -0.064 C 
ATOM     23  N   UNL     1       9.023  26.227   9.389  0.00  0.00    +0.379 N 
ATOM     24  C   UNL     1       8.142  27.363   9.079  0.00  0.00    -0.096 C 
ATOM     25  H   UNL     1       9.141  26.183  10.497  0.00  0.00    -0.082 HD
ATOM     26  C   UNL     1       8.457  24.891   8.932  0.00  0.00    -0.064 C 
ATOM     27  C   UNL     1       9.424  23.728   9.292  0.00  0.00    +0.066 C 
ENDBRANCH  19  20
ENDBRANCH  18  19
ENDBRANCH  14  15
ENDBRANCH  12  13
TORSDOF 6
ENDMDL
MODEL 4
REMARK VINA RESULT:      -7.9      3.411     14.478
REMARK  Name = C:\Users\Docking\Desktop\test protocol\1iep_ligandH.pdb
REMARK  8 active torsions:
REMARK  status: ('A' for Active; 'I' for Inactive)
REMARK    1  A    between atoms: _5  and  _11
REMARK    2  A    between atoms: _19  and  _21
REMARK    3  A    between atoms: _22  and  _66
REMARK    4  A    between atoms: _27  and  _30
REMARK    5  A    between atoms: _32  and  _33
REMARK    6  A    between atoms: _38  and  _43
REMARK    7  A    between atoms: _43  and  _46
REMARK    8  A    between atoms: _53  and  _55
REMARK                            x       y       z     vdW  Elec       q    Type
REMARK                         _______ _______ _______ _____ _____    ______ ____
ROOT
ATOM     10  C   UNL     1      11.632  22.737  10.583  0.00  0.00    +0.038 A 
ATOM     11  C   UNL     1      12.711  22.696   9.664  0.00  0.00    +0.047 A 
ATOM     12  C   UNL     1      12.995  23.822   8.787  0.00  0.00    +0.035 A 
ATOM     32  C   UNL     1      12.161  24.974   8.875  0.00  0.00    +0.024 A 
ATOM     33  C   UNL     1      11.059  25.032   9.803  0.00  0.00    +0.007 A 
ATOM     34  C   UNL     1      10.772  23.924  10.669  0.00  0.00    -0.029 A 
ATOM     35  C   UNL     1       9.574  24.038  11.639  0.00  0.00    +0.045 C 
ENDROOT
BRANCH  10   9
ATOM      4  C   UNL     1       9.472  18.560  11.547  0.00  0.00    +0.077 A 
ATOM      5  C   UNL     1       8.713  18.604  10.331  0.00  0.00    +0.048 A 
ATOM      6  C   UNL     1       8.902  19.722   9.488  0.00  0.00    +0.116 A 
ATOM      7  N   UNL     1       9.787  20.716   9.845  0.00  0.00    -0.223 NA
ATOM      8  C   UNL     1      10.503  20.643  11.026  0.00  0.00    +0.220 A 
ATOM      9  N   UNL     1      11.404  21.627  11.401  0.00  0.00    -0.283 N 
ATOM     36  H   UNL     1      11.907  21.541  12.284  0.00  0.00    +0.155 HD
ATOM     37  N   UNL     1      10.339  19.586  11.849  0.00  0.00    -0.214 NA
BRANCH   4   3
ATOM      1  C   UNL     1      10.002  16.335  14.720  0.00  0.00    +0.020 A 
ATOM      2  C   UNL     1      10.122  17.440  13.796  0.00  0.00    +0.013 A 
ATOM      3  C   UNL     1       9.385  17.442  12.539  0.00  0.00    +0.019 A 
ATOM     38  C   UNL     1       8.528  16.304  12.245  0.00  0.00    +0.120 A 
ATOM     39  N   UNL     1       8.433  15.254  13.153  0.00  0.00    -0.263 NA
ATOM     40  C   UNL     1       9.139  15.240  14.366  0.00  0.00    +0.111 A 
ENDBRANCH   4   3
ENDBRANCH  10   9
BRANCH  12  13
ATOM     13  N   UNL     1      14.072  23.835   7.829  0.00  0.00    -0.281 N 
ATOM     14  C   UNL     1      14.347  22.901   6.843  0.00  0.00    +0.248 C 
ATOM     30  O   UNL     1      13.829  21.796   6.774  0.00  0.00    -0.270 OA
ATOM     31  H   UNL     1      14.710  24.630   7.883  0.00  0.00    +0.155 HD
BRANCH  14  15
ATOM     15  C   UNL     1      15.353  23.237   5.790  0.00  0.00    +0.037 A 
ATOM     16  C   UNL     1      16.789  23.223   6.079  0.00  0.00    +0.013 A 
ATOM     17  C   UNL     1      17.737  23.568   5.050  0.00  0.00    +0.005 A 
ATOM     18  C   UNL     1      17.251  23.928   3.720  0.00  0.00    -0.033 A 
ATOM     28  C   UNL     1      15.822  23.928   3.459  0.00  0.00    +0.005 A 
ATOM     29  C   UNL     1      14.889  23.592   4.466  0.00  0.00    +0.013 A 
BRANCH  18  19
ATOM     19  C   UNL     1      18.190  24.330   2.567  0.00  0.00    +0.119 C 
BRANCH  19  20
ATOM     20  N   UNL     1      19.645  24.454   2.881  0.00  0.00    -0.302 NA
ATOM     21  C   UNL     1      20.235  25.767   2.358  0.00  0.00    +0.066 C 
ATOM     22  C   UNL     1      21.752  25.891   2.715  0.00  0.00    -0.064 C 
ATOM     23  N   UNL     1      22.508  24.691   2.143  0.00  0.00    +0.379 N 
ATOM     24  C   UNL     1      23.943  24.834   2.427  0.00  0.00    -0.096 C 
ATOM     25  H   UNL     1      22.379  24.707   1.036  0.00  0.00    -0.082 HD
ATOM     26  C   UNL     1      21.926  23.382   2.657  0.00  0.00    -0.064 C 
ATOM     27  C   UNL     1      20.411  23.281   2.322  0.00  0.00    +0.066 C 
ENDBRANCH  19  20
ENDBRANCH  18  19
ENDBRANCH  14  15
ENDBRANCH  12  13
TORSDOF 6
ENDMDL
MODEL 5
REMARK VINA RESULT:      -7.8      4.761      8.057
REMARK  Name = C:\Users\Docking\Desktop\test protocol\1iep_ligandH.pdb
REMARK  8 active torsions:
REMARK  status: ('A' for Active; 'I' for Inactive)
REMARK    1  A    between atoms: _5  and  _11
REMARK    2  A    between atoms: _19  and  _21
REMARK    3  A    between atoms: _22  and  _66
REMARK    4  A    between atoms: _27  and  _30
REMARK    5  A    between atoms: _32  and  _33
REMARK    6  A    between atoms: _38  and  _43
REMARK    7  A    between atoms: _43  and  _46
REMARK    8  A    between atoms: _53  and  _55
REMARK                            x       y       z     vdW  Elec       q    Type
REMARK                         _______ _______ _______ _____ _____    ______ ____
ROOT
ATOM     10  C   UNL     1      14.793  22.940   8.195  0.00  0.00    +0.038 A 
ATOM     11  C   UNL     1      13.611  23.687   7.958  0.00  0.00    +0.047 A 
ATOM     12  C   UNL     1      12.333  23.271   8.515  0.00  0.00    +0.035 A 
ATOM     32  C   UNL     1      12.296  22.090   9.312  0.00  0.00    +0.024 A 
ATOM     33  C   UNL     1      13.488  21.318   9.563  0.00  0.00    +0.007 A 
ATOM     34  C   UNL     1      14.751  21.722   9.014  0.00  0.00    -0.029 A 
ATOM     35  C   UNL     1      15.995  20.853   9.310  0.00  0.00    +0.045 C 
ENDROOT
BRANCH  10   9
ATOM      4  C   UNL     1      17.953  23.173   4.590  0.00  0.00    +0.077 A 
ATOM      5  C   UNL     1      17.159  22.312   3.760  0.00  0.00    +0.048 A 
ATOM      6  C   UNL     1      15.948  21.825   4.302  0.00  0.00    +0.116 A 
ATOM      7  N   UNL     1      15.569  22.180   5.578  0.00  0.00    -0.223 NA
ATOM      8  C   UNL     1      16.359  23.010   6.352  0.00  0.00    +0.220 A 
ATOM      9  N   UNL     1      15.993  23.386   7.636  0.00  0.00    -0.283 N 
ATOM     36  H   UNL     1      16.606  23.994   8.177  0.00  0.00    +0.155 HD
ATOM     37  N   UNL     1      17.520  23.487   5.859  0.00  0.00    -0.214 NA
BRANCH   4   3
ATOM      1  C   UNL     1      21.734  24.159   4.424  0.00  0.00    +0.020 A 
ATOM      2  C   UNL     1      20.503  23.560   4.884  0.00  0.00    +0.013 A 
ATOM      3  C   UNL     1      19.256  23.770   4.158  0.00  0.00    +0.019 A 
ATOM     38  C   UNL     1      19.291  24.598   2.962  0.00  0.00    +0.120 A 
ATOM     39  N   UNL     1      20.491  25.163   2.544  0.00  0.00    -0.263 NA
ATOM     40  C   UNL     1      21.697  24.969   3.235  0.00  0.00    +0.111 A 
ENDBRANCH   4   3
ENDBRANCH  10   9
BRANCH  12  13
ATOM     13  N   UNL     1      11.099  23.985   8.301  0.00  0.00    -0.281 N 
ATOM     14  C   UNL     1      10.699  25.184   8.867  0.00  0.00    +0.248 C 
ATOM     30  O   UNL     1      11.257  25.722   9.813  0.00  0.00    -0.270 OA
ATOM     31  H   UNL     1      10.439  23.553   7.654  0.00  0.00    +0.155 HD
BRANCH  14  15
ATOM     15  C   UNL     1       9.499  25.880   8.312  0.00  0.00    +0.037 A 
ATOM     16  C   UNL     1       8.543  26.562   9.189  0.00  0.00    +0.013 A 
ATOM     17  C   UNL     1       7.384  27.211   8.629  0.00  0.00    +0.005 A 
ATOM     18  C   UNL     1       7.175  27.182   7.183  0.00  0.00    -0.033 A 
ATOM     28  C   UNL     1       8.142  26.503   6.337  0.00  0.00    +0.005 A 
ATOM     29  C   UNL     1       9.279  25.865   6.882  0.00  0.00    +0.013 A 
BRANCH  18  19
ATOM     19  C   UNL     1       5.956  27.830   6.501  0.00  0.00    +0.119 C 
BRANCH  19  20
ATOM     20  N   UNL     1       4.645  27.736   7.211  0.00  0.00    -0.302 NA
ATOM     21  C   UNL     1       3.878  26.466   6.835  0.00  0.00    +0.066 C 
ATOM     22  C   UNL     1       2.520  26.372   7.604  0.00  0.00    -0.064 C 
ATOM     23  N   UNL     1       1.683  27.618   7.308  0.00  0.00    +0.379 N 
ATOM     24  C   UNL     1       0.382  27.507   7.983  0.00  0.00    -0.096 C 
ATOM     25  H   UNL     1       1.493  27.645   6.210  0.00  0.00    -0.082 HD
ATOM     26  C   UNL     1       2.440  28.886   7.676  0.00  0.00    -0.064 C 
ATOM     27  C   UNL     1       3.801  28.955   6.930  0.00  0.00    +0.066 C 
ENDBRANCH  19  20
ENDBRANCH  18  19
ENDBRANCH  14  15
ENDBRANCH  12  13
TORSDOF 6
ENDMDL
