MODEL 1
REMARK VINA RESULT:      -8.3      0.000      0.000
REMARK  Name = C:\Users\Docking\Desktop\test protocol\1iep_ligandH.pdb
REMARK  8 active torsions:
REMARK  status: ('A' for Active; 'I' for Inactive)
REMARK    1  A    between atoms: _5  and  _11
REMARK    2  A    between atoms: _19  and  _21
REMARK    3  A    between atoms: _22  and  _66
REMARK    4  A    between atoms: _27  and  _30
REMARK    5  A    between atoms: _32  and  _33
REMARK    6  A    between atoms: _38  and  _43
REMARK    7  A    between atoms: _43  and  _46
REMARK    8  A    between atoms: _53  and  _55
REMARK                            x       y       z     vdW  Elec       q    Type
REMARK                         _______ _______ _______ _____ _____    ______ ____
ROOT
ATOM     10  C   UNL     1      20.187  25.574   3.837  0.00  0.00    +0.038 A 
ATOM     11  C   UNL     1      18.965  25.331   4.516  0.00  0.00    +0.047 A 
ATOM     12  C   UNL     1      18.355  24.011   4.518  0.00  0.00    +0.035 A 
ATOM     32  C   UNL     1      19.017  22.959   3.819  0.00  0.00    +0.024 A 
ATOM     33  C   UNL     1      20.258  23.189   3.122  0.00  0.00    +0.007 A 
ATOM     34  C   UNL     1      20.864  24.489   3.115  0.00  0.00    -0.029 A 
ATOM     35  C   UNL     1      22.192  24.679   2.346  0.00  0.00    +0.045 C 
ENDROOT
BRANCH  10   9
ATOM      4  C   UNL     1      21.150  29.811   1.799  0.00  0.00    +0.077 A 
ATOM      5  C   UNL     1      20.546  29.418   0.558  0.00  0.00    +0.048 A 
ATOM      6  C   UNL     1      20.006  28.115   0.483  0.00  0.00    +0.116 A 
ATOM      7  N   UNL     1      20.070  27.276   1.574  0.00  0.00    -0.223 NA
ATOM      8  C   UNL     1      20.660  27.685   2.756  0.00  0.00    +0.220 A 
ATOM      9  N   UNL     1      20.728  26.861   3.868  0.00  0.00    -0.283 N 
ATOM     36  H   UNL     1      21.179  27.197   4.719  0.00  0.00    +0.155 HD
ATOM     37  N   UNL     1      21.185  28.925   2.852  0.00  0.00    -0.214 NA
BRANCH   4   3
ATOM      1  C   UNL     1      23.162  33.132   1.326  0.00  0.00    +0.020 A 
ATOM      2  C   UNL     1      22.596  31.832   1.049  0.00  0.00    +0.013 A 
ATOM      3  C   UNL     1      21.761  31.157   2.035  0.00  0.00    +0.019 A 
ATOM     38  C   UNL     1      21.516  31.831   3.301  0.00  0.00    +0.120 A 
ATOM     39  N   UNL     1      22.075  33.082   3.541  0.00  0.00    -0.263 NA
ATOM     40  C   UNL     1      22.882  33.740   2.600  0.00  0.00    +0.111 A 
ENDBRANCH   4   3
ENDBRANCH  10   9
BRANCH  12  13
ATOM     13  N   UNL     1      17.112  23.706   5.183  0.00  0.00    -0.281 N 
ATOM     14  C   UNL     1      16.916  22.904   6.295  0.00  0.00    +0.248 C 
ATOM     30  O   UNL     1      17.758  22.150   6.761  0.00  0.00    -0.270 OA
ATOM     31  H   UNL     1      16.276  24.135   4.786  0.00  0.00    +0.155 HD
BRANCH  14  15
ATOM     15  C   UNL     1      15.588  22.931   6.980  0.00  0.00    +0.037 A 
ATOM     16  C   UNL     1      14.341  23.039   6.218  0.00  0.00    +0.013 A 
ATOM     17  C   UNL     1      13.075  23.081   6.904  0.00  0.00    +0.005 A 
ATOM     18  C   UNL     1      13.049  23.013   8.363  0.00  0.00    -0.033 A 
ATOM     28  C   UNL     1      14.300  22.902   9.095  0.00  0.00    +0.005 A 
ATOM     29  C   UNL     1      15.543  22.861   8.425  0.00  0.00    +0.013 A 
BRANCH  18  19
ATOM     19  C   UNL     1      11.744  23.073   9.180  0.00  0.00    +0.119 C 
BRANCH  19  20
ATOM     20  N   UNL     1      10.730  24.092   8.776  0.00  0.00    -0.302 NA
ATOM     21  C   UNL     1      11.211  25.520   9.051  0.00  0.00    +0.066 C 
ATOM     22  C   UNL     1      10.148  26.574   8.601  0.00  0.00    -0.064 C 
ATOM     23  N   UNL     1       8.826  26.300   9.321  0.00  0.00    +0.379 N 
ATOM     24  C   UNL     1       7.841  27.325   8.945  0.00  0.00    -0.096 C 
ATOM     25  H   UNL     1       9.012  26.395  10.416  0.00  0.00    -0.082 HD
ATOM     26  C   UNL     1       8.342  24.882   9.056  0.00  0.00    -0.064 C 
ATOM     27  C   UNL     1       9.418  23.843   9.479  0.00  0.00    +0.066 C 
ENDBRANCH  19  20
ENDBRANCH  18  19
ENDBRANCH  14  15
ENDBRANCH  12  13
TORSDOF 6
ENDMDL
MODEL 2
REMARK VINA RESULT:      -8.2      4.206     14.195
REMARK  Name = C:\Users\Docking\Desktop\test protocol\1iep_ligandH.pdb
REMARK  8 active torsions:
REMARK  status: ('A' for Active; 'I' for Inactive)
REMARK    1  A    between atoms: _5  and  _11
REMARK    2  A    between atoms: _19  and  _21
REMARK    3  A    between atoms: _22  and  _66
REMARK    4  A    between atoms: _27  and  _30
REMARK    5  A    between atoms: _32  and  _33
REMARK    6  A    between atoms: _38  and  _43
REMARK    7  A    between atoms: _43  and  _46
REMARK    8  A    between atoms: _53  and  _55
REMARK                            x       y       z     vdW  Elec       q    Type
REMARK                         _______ _______ _______ _____ _____    ______ ____
ROOT
ATOM     10  C   UNL     1      11.586  22.834  10.573  0.00  0.00    +0.038 A 
ATOM     11  C   UNL     1      12.689  22.768   9.684  0.00  0.00    +0.047 A 
ATOM     12  C   UNL     1      13.005  23.874   8.794  0.00  0.00    +0.035 A 
ATOM     32  C   UNL     1      12.178  25.035   8.839  0.00  0.00    +0.024 A 
ATOM     33  C   UNL     1      11.053  25.118   9.736  0.00  0.00    +0.007 A 
ATOM     34  C   UNL     1      10.734  24.029  10.614  0.00  0.00    -0.029 A 
ATOM     35  C   UNL     1       9.512  24.171  11.550  0.00  0.00    +0.045 C 
ENDROOT
BRANCH  10   9
ATOM      4  C   UNL     1       9.478  18.622  11.499  0.00  0.00    +0.077 A 
ATOM      5  C   UNL     1       8.814  18.608  10.227  0.00  0.00    +0.048 A 
ATOM      6  C   UNL     1       9.035  19.707   9.367  0.00  0.00    +0.116 A 
ATOM      7  N   UNL     1       9.862  20.737   9.760  0.00  0.00    -0.223 NA
ATOM      8  C   UNL     1      10.486  20.720  10.993  0.00  0.00    +0.220 A 
ATOM      9  N   UNL     1      11.328  21.742  11.405  0.00  0.00    -0.283 N 
ATOM     36  H   UNL     1      11.763  21.696  12.326  0.00  0.00    +0.155 HD
ATOM     37  N   UNL     1      10.290  19.683  11.834  0.00  0.00    -0.214 NA
BRANCH   4   3
ATOM      1  C   UNL     1       9.930  16.443  14.716  0.00  0.00    +0.020 A 
ATOM      2  C   UNL     1      10.094  17.520  13.767  0.00  0.00    +0.013 A 
ATOM      3  C   UNL     1       9.347  17.531  12.516  0.00  0.00    +0.019 A 
ATOM     38  C   UNL     1       8.434  16.429  12.253  0.00  0.00    +0.120 A 
ATOM     39  N   UNL     1       8.298  15.404  13.185  0.00  0.00    -0.263 NA
ATOM     40  C   UNL     1       9.013  15.382  14.391  0.00  0.00    +0.111 A 
ENDBRANCH   4   3
ENDBRANCH  10   9
BRANCH  12  13
ATOM     13  N   UNL     1      14.107  23.861   7.864  0.00  0.00    -0.281 N 
ATOM     14  C   UNL     1      14.335  22.972   6.827  0.00  0.00    +0.248 C 
ATOM     30  O   UNL     1      13.734  21.919   6.674  0.00  0.00    -0.270 OA
ATOM     31  H   UNL     1      14.803  24.597   7.985  0.00  0.00    +0.155 HD
BRANCH  14  15
ATOM     15  C   UNL     1      15.395  23.291   5.822  0.00  0.00    +0.037 A 
ATOM     16  C   UNL     1      15.050  23.677   4.451  0.00  0.00    +0.013 A 
ATOM     17  C   UNL     1      16.092  23.963   3.497  0.00  0.00    +0.005 A 
ATOM     18  C   UNL     1      17.489  23.866   3.912  0.00  0.00    -0.033 A 
ATOM     28  C   UNL     1      17.803  23.485   5.279  0.00  0.00    +0.005 A 
ATOM     29  C   UNL     1      16.784  23.203   6.217  0.00  0.00    +0.013 A 
BRANCH  18  19
ATOM     19  C   UNL     1      18.666  24.132   2.955  0.00  0.00    +0.119 C 
BRANCH  19  20
ATOM     20  N   UNL     1      19.348  25.457   3.062  0.00  0.00    -0.302 NA
ATOM     21  C   UNL     1      18.472  26.598   2.536  0.00  0.00    +0.066 C 
ATOM     22  C   UNL     1      19.192  27.979   2.677  0.00  0.00    -0.064 C 
ATOM     23  N   UNL     1      20.527  27.933   1.931  0.00  0.00    +0.379 N 
ATOM     24  C   UNL     1      21.179  29.248   2.012  0.00  0.00    -0.096 C 
ATOM     25  H   UNL     1      20.307  27.730   0.857  0.00  0.00    -0.082 HD
ATOM     26  C   UNL     1      21.403  26.799   2.445  0.00  0.00    -0.064 C 
ATOM     27  C   UNL     1      20.667  25.435   2.329  0.00  0.00    +0.066 C 
ENDBRANCH  19  20
ENDBRANCH  18  19
ENDBRANCH  14  15
ENDBRANCH  12  13
TORSDOF 6
ENDMDL
MODEL 3
REMARK VINA RESULT:      -8.2      1.576      2.488
REMARK  Name = C:\Users\Docking\Desktop\test protocol\1iep_ligandH.pdb
REMARK  8 active torsions:
REMARK  status: ('A' for Active; 'I' for Inactive)
REMARK    1  A    between atoms: _5  and  _11
REMARK    2  A    between atoms: _19  and  _21
REMARK    3  A    between atoms: _22  and  _66
REMARK    4  A    between atoms: _27  and  _30
REMARK    5  A    between atoms: _32  and  _33
REMARK    6  A    between atoms: _38  and  _43
REMARK    7  A    between atoms: _43  and  _46
REMARK    8  A    between atoms: _53  and  _55
REMARK                            x       y       z     vdW  Elec       q    Type
REMARK                         _______ _______ _______ _____ _____    ______ ____
ROOT
ATOM     10  C   UNL     1      20.133  25.637   4.009  0.00  0.00    +0.038 A 
ATOM     11  C   UNL     1      18.834  25.446   4.545  0.00  0.00    +0.047 A 
ATOM     12  C   UNL     1      18.208  24.133   4.549  0.00  0.00    +0.035 A 
ATOM     32  C   UNL     1      18.935  23.036   4.002  0.00  0.00    +0.024 A 
ATOM     33  C   UNL     1      20.256  23.213   3.453  0.00  0.00    +0.007 A 
ATOM     34  C   UNL     1      20.878  24.506   3.444  0.00  0.00    -0.029 A 
ATOM     35  C   UNL     1      22.294  24.638   2.836  0.00  0.00    +0.045 C 
ENDROOT
BRANCH  10   9
ATOM      4  C   UNL     1      21.211  29.818   1.912  0.00  0.00    +0.077 A 
ATOM      5  C   UNL     1      20.648  29.402   0.659  0.00  0.00    +0.048 A 
ATOM      6  C   UNL     1      20.098  28.102   0.595  0.00  0.00    +0.116 A 
ATOM      7  N   UNL     1      20.114  27.288   1.706  0.00  0.00    -0.223 NA
ATOM      8  C   UNL     1      20.666  27.719   2.898  0.00  0.00    +0.220 A 
ATOM      9  N   UNL     1      20.687  26.920   4.031  0.00  0.00    -0.283 N 
ATOM     36  H   UNL     1      21.110  27.272   4.889  0.00  0.00    +0.155 HD
ATOM     37  N   UNL     1      21.200  28.956   2.985  0.00  0.00    -0.214 NA
BRANCH   4   3
ATOM      1  C   UNL     1      22.369  33.160   3.582  0.00  0.00    +0.020 A 
ATOM      2  C   UNL     1      21.757  31.862   3.416  0.00  0.00    +0.013 A 
ATOM      3  C   UNL     1      21.828  31.163   2.139  0.00  0.00    +0.019 A 
ATOM     38  C   UNL     1      22.532  31.810   1.042  0.00  0.00    +0.120 A 
ATOM     39  N   UNL     1      23.111  33.061   1.231  0.00  0.00    -0.263 NA
ATOM     40  C   UNL     1      23.048  33.744   2.455  0.00  0.00    +0.111 A 
ENDBRANCH   4   3
ENDBRANCH  10   9
BRANCH  12  13
ATOM     13  N   UNL     1      16.888  23.880   5.072  0.00  0.00    -0.281 N 
ATOM     14  C   UNL     1      16.542  23.140   6.190  0.00  0.00    +0.248 C 
ATOM     30  O   UNL     1      17.307  22.401   6.794  0.00  0.00    -0.270 OA
ATOM     31  H   UNL     1      16.114  24.297   4.554  0.00  0.00    +0.155 HD
BRANCH  14  15
ATOM     15  C   UNL     1      15.142  23.220   6.705  0.00  0.00    +0.037 A 
ATOM     16  C   UNL     1      13.998  23.283   5.791  0.00  0.00    +0.013 A 
ATOM     17  C   UNL     1      12.658  23.377   6.314  0.00  0.00    +0.005 A 
ATOM     18  C   UNL     1      12.455  23.407   7.760  0.00  0.00    -0.033 A 
ATOM     28  C   UNL     1      13.606  23.338   8.644  0.00  0.00    +0.005 A 
ATOM     29  C   UNL     1      14.921  23.247   8.135  0.00  0.00    +0.013 A 
BRANCH  18  19
ATOM     19  C   UNL     1      11.061  23.528   8.406  0.00  0.00    +0.119 C 
BRANCH  19  20
ATOM     20  N   UNL     1      10.601  22.389   9.255  0.00  0.00    -0.302 NA
ATOM     21  C   UNL     1      10.758  21.042   8.544  0.00  0.00    +0.066 C 
ATOM     22  C   UNL     1      10.292  19.860   9.455  0.00  0.00    -0.064 C 
ATOM     23  N   UNL     1       8.838  20.085   9.875  0.00  0.00    +0.379 N 
ATOM     24  C   UNL     1       8.380  18.946  10.684  0.00  0.00    -0.096 C 
ATOM     25  H   UNL     1       8.220  20.112   8.948  0.00  0.00    -0.082 HD
ATOM     26  C   UNL     1       8.673  21.423  10.580  0.00  0.00    -0.064 C 
ATOM     27  C   UNL     1       9.166  22.588   9.677  0.00  0.00    +0.066 C 
ENDBRANCH  19  20
ENDBRANCH  18  19
ENDBRANCH  14  15
ENDBRANCH  12  13
TORSDOF 6
ENDMDL
MODEL 4
REMARK VINA RESULT:      -8.0      4.204     14.371
REMARK  Name = C:\Users\Docking\Desktop\test protocol\1iep_ligandH.pdb
REMARK  8 active torsions:
REMARK  status: ('A' for Active; 'I' for Inactive)
REMARK    1  A    between atoms: _5  and  _11
REMARK    2  A    between atoms: _19  and  _21
REMARK    3  A    between atoms: _22  and  _66
REMARK    4  A    between atoms: _27  and  _30
REMARK    5  A    between atoms: _32  and  _33
REMARK    6  A    between atoms: _38  and  _43
REMARK    7  A    between atoms: _43  and  _46
REMARK    8  A    between atoms: _53  and  _55
REMARK                            x       y       z     vdW  Elec       q    Type
REMARK                         _______ _______ _______ _____ _____    ______ ____
ROOT
ATOM     10  C   UNL     1      11.704  22.856  10.451  0.00  0.00    +0.038 A 
ATOM     11  C   UNL     1      12.784  22.809   9.533  0.00  0.00    +0.047 A 
ATOM     12  C   UNL     1      13.074  23.931   8.654  0.00  0.00    +0.035 A 
ATOM     32  C   UNL     1      12.244  25.087   8.739  0.00  0.00    +0.024 A 
ATOM     33  C   UNL     1      11.141  25.152   9.665  0.00  0.00    +0.007 A 
ATOM     34  C   UNL     1      10.849  24.046  10.533  0.00  0.00    -0.029 A 
ATOM     35  C   UNL     1       9.650  24.168  11.501  0.00  0.00    +0.045 C 
ENDROOT
BRANCH  10   9
ATOM      4  C   UNL     1       9.521  18.693  11.424  0.00  0.00    +0.077 A 
ATOM      5  C   UNL     1       8.761  18.739  10.208  0.00  0.00    +0.048 A 
ATOM      6  C   UNL     1       8.956  19.855   9.363  0.00  0.00    +0.116 A 
ATOM      7  N   UNL     1       9.847  20.845   9.718  0.00  0.00    -0.223 NA
ATOM      8  C   UNL     1      10.563  20.770  10.898  0.00  0.00    +0.220 A 
ATOM      9  N   UNL     1      11.471  21.750  11.271  0.00  0.00    -0.283 N 
ATOM     36  H   UNL     1      11.974  21.661  12.153  0.00  0.00    +0.155 HD
ATOM     37  N   UNL     1      10.394  19.715  11.723  0.00  0.00    -0.214 NA
BRANCH   4   3
ATOM      1  C   UNL     1      10.019  16.485  14.615  0.00  0.00    +0.020 A 
ATOM      2  C   UNL     1      10.143  17.588  13.689  0.00  0.00    +0.013 A 
ATOM      3  C   UNL     1       9.429  17.578  12.418  0.00  0.00    +0.019 A 
ATOM     38  C   UNL     1       8.591  16.428  12.112  0.00  0.00    +0.120 A 
ATOM     39  N   UNL     1       8.492  15.380  13.022  0.00  0.00    -0.263 NA
ATOM     40  C   UNL     1       9.175  15.378  14.248  0.00  0.00    +0.111 A 
ENDBRANCH   4   3
ENDBRANCH  10   9
BRANCH  12  13
ATOM     13  N   UNL     1      14.152  23.938   7.697  0.00  0.00    -0.281 N 
ATOM     14  C   UNL     1      14.391  23.032   6.677  0.00  0.00    +0.248 C 
ATOM     30  O   UNL     1      13.830  21.952   6.566  0.00  0.00    -0.270 OA
ATOM     31  H   UNL     1      14.820  24.704   7.781  0.00  0.00    +0.155 HD
BRANCH  14  15
ATOM     15  C   UNL     1      15.411  23.367   5.637  0.00  0.00    +0.037 A 
ATOM     16  C   UNL     1      16.830  23.494   5.979  0.00  0.00    +0.013 A 
ATOM     17  C   UNL     1      17.792  23.835   4.960  0.00  0.00    +0.005 A 
ATOM     18  C   UNL     1      17.336  24.050   3.588  0.00  0.00    -0.033 A 
ATOM     28  C   UNL     1      15.923  23.912   3.277  0.00  0.00    +0.005 A 
ATOM     29  C   UNL     1      14.978  23.579   4.273  0.00  0.00    +0.013 A 
BRANCH  18  19
ATOM     19  C   UNL     1      18.288  24.438   2.442  0.00  0.00    +0.119 C 
BRANCH  19  20
ATOM     20  N   UNL     1      19.736  24.585   2.776  0.00  0.00    -0.302 NA
ATOM     21  C   UNL     1      20.329  25.877   2.206  0.00  0.00    +0.066 C 
ATOM     22  C   UNL     1      21.839  26.025   2.584  0.00  0.00    -0.064 C 
ATOM     23  N   UNL     1      22.611  24.806   2.077  0.00  0.00    +0.379 N 
ATOM     24  C   UNL     1      24.040  24.970   2.380  0.00  0.00    -0.096 C 
ATOM     25  H   UNL     1      22.501  24.773   0.968  0.00  0.00    -0.082 HD
ATOM     26  C   UNL     1      22.026  23.517   2.637  0.00  0.00    -0.064 C 
ATOM     27  C   UNL     1      20.518  23.393   2.281  0.00  0.00    +0.066 C 
ENDBRANCH  19  20
ENDBRANCH  18  19
ENDBRANCH  14  15
ENDBRANCH  12  13
TORSDOF 6
ENDMDL
MODEL 5
REMARK VINA RESULT:      -8.0      9.418     14.301
REMARK  Name = C:\Users\Docking\Desktop\test protocol\1iep_ligandH.pdb
REMARK  8 active torsions:
REMARK  status: ('A' for Active; 'I' for Inactive)
REMARK    1  A    between atoms: _5  and  _11
REMARK    2  A    between atoms: _19  and  _21
REMARK    3  A    between atoms: _22  and  _66
REMARK    4  A    between atoms: _27  and  _30
REMARK    5  A    between atoms: _32  and  _33
REMARK    6  A    between atoms: _38  and  _43
REMARK    7  A    between atoms: _43  and  _46
REMARK    8  A    between atoms: _53  and  _55
REMARK                            x       y       z     vdW  Elec       q    Type
REMARK                         _______ _______ _______ _____ _____    ______ ____
ROOT
ATOM     10  C   UNL     1       9.506  24.953   8.339  0.00  0.00    +0.038 A 
ATOM     11  C   UNL     1       8.130  25.293   8.281  0.00  0.00    +0.047 A 
ATOM     12  C   UNL     1       7.698  26.682   8.294  0.00  0.00    +0.035 A 
ATOM     32  C   UNL     1       8.694  27.699   8.365  0.00  0.00    +0.024 A 
ATOM     33  C   UNL     1      10.097  27.371   8.426  0.00  0.00    +0.007 A 
ATOM     34  C   UNL     1      10.529  26.002   8.416  0.00  0.00    -0.029 A 
ATOM     35  C   UNL     1      12.045  25.708   8.490  0.00  0.00    +0.045 C 
ENDROOT
BRANCH  10   9
ATOM      4  C   UNL     1      10.562  20.827  10.552  0.00  0.00    +0.077 A 
ATOM      5  C   UNL     1      10.413  21.417  11.851  0.00  0.00    +0.048 A 
ATOM      6  C   UNL     1      10.071  22.786  11.906  0.00  0.00    +0.116 A 
ATOM      7  N   UNL     1       9.893  23.503  10.742  0.00  0.00    -0.223 NA
ATOM      8  C   UNL     1      10.046  22.904   9.506  0.00  0.00    +0.220 A 
ATOM      9  N   UNL     1       9.865  23.603   8.323  0.00  0.00    -0.283 N 
ATOM     36  H   UNL     1       9.994  23.127   7.430  0.00  0.00    +0.155 HD
ATOM     37  N   UNL     1      10.374  21.597   9.426  0.00  0.00    -0.214 NA
BRANCH   4   3
ATOM      1  C   UNL     1      10.577  16.918  10.702  0.00  0.00    +0.020 A 
ATOM      2  C   UNL     1      10.193  18.288  10.950  0.00  0.00    +0.013 A 
ATOM      3  C   UNL     1      10.918  19.390  10.329  0.00  0.00    +0.019 A 
ATOM     38  C   UNL     1      12.036  19.067   9.455  0.00  0.00    +0.120 A 
ATOM     39  N   UNL     1      12.384  17.738   9.235  0.00  0.00    -0.263 NA
ATOM     40  C   UNL     1      11.694  16.670   9.829  0.00  0.00    +0.111 A 
ENDBRANCH   4   3
ENDBRANCH  10   9
BRANCH  12  13
ATOM     13  N   UNL     1       6.315  27.089   8.245  0.00  0.00    -0.281 N 
ATOM     14  C   UNL     1       5.425  26.953   7.193  0.00  0.00    +0.248 C 
ATOM     30  O   UNL     1       5.743  26.653   6.052  0.00  0.00    -0.270 OA
ATOM     31  H   UNL     1       5.949  27.530   9.089  0.00  0.00    +0.155 HD
BRANCH  14  15
ATOM     15  C   UNL     1       3.972  27.201   7.441  0.00  0.00    +0.037 A 
ATOM     16  C   UNL     1       2.967  26.173   7.160  0.00  0.00    +0.013 A 
ATOM     17  C   UNL     1       1.570  26.444   7.392  0.00  0.00    +0.005 A 
ATOM     18  C   UNL     1       1.170  27.751   7.909  0.00  0.00    -0.033 A 
ATOM     28  C   UNL     1       2.189  28.751   8.184  0.00  0.00    +0.005 A 
ATOM     29  C   UNL     1       3.559  28.489   7.957  0.00  0.00    +0.013 A 
BRANCH  18  19
ATOM     19  C   UNL     1      -0.299  28.135   8.167  0.00  0.00    +0.119 C 
BRANCH  19  20
ATOM     20  N   UNL     1      -0.649  28.618   9.536  0.00  0.00    -0.302 NA
ATOM     21  C   UNL     1      -1.637  27.682  10.239  0.00  0.00    +0.066 C 
ATOM     22  C   UNL     1      -1.975  28.190  11.679  0.00  0.00    -0.064 C 
ATOM     23  N   UNL     1      -2.539  29.610  11.596  0.00  0.00    +0.379 N 
ATOM     24  C   UNL     1      -2.913  30.069  12.942  0.00  0.00    -0.096 C 
ATOM     25  H   UNL     1      -3.469  29.568  10.982  0.00  0.00    -0.082 HD
ATOM     26  C   UNL     1      -1.565  30.546  10.895  0.00  0.00    -0.064 C 
ATOM     27  C   UNL     1      -1.213  30.016   9.477  0.00  0.00    +0.066 C 
ENDBRANCH  19  20
ENDBRANCH  18  19
ENDBRANCH  14  15
ENDBRANCH  12  13
TORSDOF 6
ENDMDL
