MODEL 1
REMARK VINA RESULT:      -9.5      0.000      0.000
REMARK  Name = C:\Users\Docking\Desktop\test protocol\1iep_ligandH.pdb
REMARK  8 active torsions:
REMARK  status: ('A' for Active; 'I' for Inactive)
REMARK    1  A    between atoms: _5  and  _11
REMARK    2  A    between atoms: _19  and  _21
REMARK    3  A    between atoms: _22  and  _66
REMARK    4  A    between atoms: _27  and  _30
REMARK    5  A    between atoms: _32  and  _33
REMARK    6  A    between atoms: _38  and  _43
REMARK    7  A    between atoms: _43  and  _46
REMARK    8  A    between atoms: _53  and  _55
REMARK                            x       y       z     vdW  Elec       q    Type
REMARK                         _______ _______ _______ _____ _____    ______ ____
ROOT
ATOM     10  C   UNL     1       5.715  80.282  93.059  0.00  0.00    +0.038 A 
ATOM     11  C   UNL     1       6.746  81.219  92.795  0.00  0.00    +0.047 A 
ATOM     12  C   UNL     1       8.118  80.788  92.577  0.00  0.00    +0.035 A 
ATOM     32  C   UNL     1       8.404  79.392  92.632  0.00  0.00    +0.024 A 
ATOM     33  C   UNL     1       7.369  78.426  92.899  0.00  0.00    +0.007 A 
ATOM     34  C   UNL     1       6.014  78.846  93.118  0.00  0.00    -0.029 A 
ATOM     35  C   UNL     1       4.946  77.766  93.407  0.00  0.00    +0.045 C 
ENDROOT
BRANCH  10   9
ATOM      4  C   UNL     1       1.652  82.297  91.489  0.00  0.00    +0.077 A 
ATOM      5  C   UNL     1       2.172  82.452  90.161  0.00  0.00    +0.048 A 
ATOM      6  C   UNL     1       3.492  82.007  89.925  0.00  0.00    +0.116 A 
ATOM      7  N   UNL     1       4.228  81.449  90.949  0.00  0.00    -0.223 NA
ATOM      8  C   UNL     1       3.697  81.316  92.218  0.00  0.00    +0.220 A 
ATOM      9  N   UNL     1       4.416  80.751  93.260  0.00  0.00    -0.283 N 
ATOM     36  H   UNL     1       3.991  80.678  94.184  0.00  0.00    +0.155 HD
ATOM     37  N   UNL     1       2.439  81.735  92.470  0.00  0.00    -0.214 NA
BRANCH   4   3
ATOM      1  C   UNL     1      -1.882  83.975  91.522  0.00  0.00    +0.020 A 
ATOM      2  C   UNL     1      -0.556  83.601  91.085  0.00  0.00    +0.013 A 
ATOM      3  C   UNL     1       0.273  82.717  91.894  0.00  0.00    +0.019 A 
ATOM     38  C   UNL     1      -0.273  82.224  93.150  0.00  0.00    +0.120 A 
ATOM     39  N   UNL     1      -1.553  82.602  93.545  0.00  0.00    -0.263 NA
ATOM     40  C   UNL     1      -2.359  83.454  92.776  0.00  0.00    +0.111 A 
ENDBRANCH   4   3
ENDBRANCH  10   9
BRANCH  12  13
ATOM     13  N   UNL     1       9.208  81.694  92.314  0.00  0.00    -0.281 N 
ATOM     14  C   UNL     1       9.537  82.852  93.000  0.00  0.00    +0.248 C 
ATOM     30  O   UNL     1       8.813  83.401  93.817  0.00  0.00    -0.270 OA
ATOM     31  H   UNL     1       9.810  81.453  91.526  0.00  0.00    +0.155 HD
BRANCH  14  15
ATOM     15  C   UNL     1      10.856  83.502  92.728  0.00  0.00    +0.037 A 
ATOM     16  C   UNL     1      11.365  83.646  91.361  0.00  0.00    +0.013 A 
ATOM     17  C   UNL     1      12.647  84.261  91.128  0.00  0.00    +0.005 A 
ATOM     18  C   UNL     1      13.429  84.740  92.266  0.00  0.00    -0.033 A 
ATOM     28  C   UNL     1      12.898  84.590  93.610  0.00  0.00    +0.005 A 
ATOM     29  C   UNL     1      11.642  83.986  93.843  0.00  0.00    +0.013 A 
BRANCH  18  19
ATOM     19  C   UNL     1      14.817  85.390  92.113  0.00  0.00    +0.119 C 
BRANCH  19  20
ATOM     20  N   UNL     1      16.008  84.535  92.394  0.00  0.00    -0.302 NA
ATOM     21  C   UNL     1      16.238  84.347  93.896  0.00  0.00    +0.066 C 
ATOM     22  C   UNL     1      17.475  83.431  94.172  0.00  0.00    -0.064 C 
ATOM     23  N   UNL     1      18.712  84.034  93.506  0.00  0.00    +0.379 N 
ATOM     24  C   UNL     1      19.887  83.206  93.812  0.00  0.00    -0.096 C 
ATOM     25  H   UNL     1      18.881  85.041  93.955  0.00  0.00    -0.082 HD
ATOM     26  C   UNL     1      18.491  84.227  92.012  0.00  0.00    -0.064 C 
ATOM     27  C   UNL     1      17.242  85.115  91.749  0.00  0.00    +0.066 C 
ENDBRANCH  19  20
ENDBRANCH  18  19
ENDBRANCH  14  15
ENDBRANCH  12  13
TORSDOF 6
ENDMDL
MODEL 2
REMARK VINA RESULT:      -9.2      5.366      6.515
REMARK  Name = C:\Users\Docking\Desktop\test protocol\1iep_ligandH.pdb
REMARK  8 active torsions:
REMARK  status: ('A' for Active; 'I' for Inactive)
REMARK    1  A    between atoms: _5  and  _11
REMARK    2  A    between atoms: _19  and  _21
REMARK    3  A    between atoms: _22  and  _66
REMARK    4  A    between atoms: _27  and  _30
REMARK    5  A    between atoms: _32  and  _33
REMARK    6  A    between atoms: _38  and  _43
REMARK    7  A    between atoms: _43  and  _46
REMARK    8  A    between atoms: _53  and  _55
REMARK                            x       y       z     vdW  Elec       q    Type
REMARK                         _______ _______ _______ _____ _____    ______ ____
ROOT
ATOM     10  C   UNL     1       5.462  84.860  88.770  0.00  0.00    +0.038 A 
ATOM     11  C   UNL     1       6.792  85.022  89.234  0.00  0.00    +0.047 A 
ATOM     12  C   UNL     1       7.506  83.927  89.871  0.00  0.00    +0.035 A 
ATOM     32  C   UNL     1       6.835  82.678  90.016  0.00  0.00    +0.024 A 
ATOM     33  C   UNL     1       5.483  82.495  89.551  0.00  0.00    +0.007 A 
ATOM     34  C   UNL     1       4.773  83.573  88.924  0.00  0.00    -0.029 A 
ATOM     35  C   UNL     1       3.322  83.323  88.451  0.00  0.00    +0.045 C 
ENDROOT
BRANCH  10   9
ATOM      4  C   UNL     1       4.357  87.519  84.929  0.00  0.00    +0.077 A 
ATOM      5  C   UNL     1       5.139  86.690  84.057  0.00  0.00    +0.048 A 
ATOM      6  C   UNL     1       5.815  85.594  84.638  0.00  0.00    +0.116 A 
ATOM      7  N   UNL     1       5.710  85.354  85.991  0.00  0.00    -0.223 NA
ATOM      8  C   UNL     1       4.950  86.173  86.804  0.00  0.00    +0.220 A 
ATOM      9  N   UNL     1       4.824  85.946  88.165  0.00  0.00    -0.283 N 
ATOM     36  H   UNL     1       4.259  86.578  88.732  0.00  0.00    +0.155 HD
ATOM     37  N   UNL     1       4.295  87.228  86.274  0.00  0.00    -0.214 NA
BRANCH   4   3
ATOM      1  C   UNL     1       3.347  90.854  83.153  0.00  0.00    +0.020 A 
ATOM      2  C   UNL     1       4.139  89.721  83.572  0.00  0.00    +0.013 A 
ATOM      3  C   UNL     1       3.582  88.712  84.465  0.00  0.00    +0.019 A 
ATOM     38  C   UNL     1       2.210  88.882  84.919  0.00  0.00    +0.120 A 
ATOM     39  N   UNL     1       1.472  89.985  84.500  0.00  0.00    -0.263 NA
ATOM     40  C   UNL     1       1.998  90.962  83.642  0.00  0.00    +0.111 A 
ENDBRANCH   4   3
ENDBRANCH  10   9
BRANCH  12  13
ATOM     13  N   UNL     1       8.855  84.035  90.369  0.00  0.00    -0.281 N 
ATOM     14  C   UNL     1       9.266  84.223  91.678  0.00  0.00    +0.248 C 
ATOM     30  O   UNL     1       8.526  84.541  92.597  0.00  0.00    -0.270 OA
ATOM     31  H   UNL     1       9.596  83.965  89.672  0.00  0.00    +0.155 HD
BRANCH  14  15
ATOM     15  C   UNL     1      10.712  84.045  92.013  0.00  0.00    +0.037 A 
ATOM     16  C   UNL     1      11.135  83.602  93.345  0.00  0.00    +0.013 A 
ATOM     17  C   UNL     1      12.537  83.455  93.646  0.00  0.00    +0.005 A 
ATOM     18  C   UNL     1      13.527  83.750  92.613  0.00  0.00    -0.033 A 
ATOM     28  C   UNL     1      13.079  84.182  91.300  0.00  0.00    +0.005 A 
ATOM     29  C   UNL     1      11.706  84.329  91.000  0.00  0.00    +0.013 A 
BRANCH  18  19
ATOM     19  C   UNL     1      15.044  83.641  92.853  0.00  0.00    +0.119 C 
BRANCH  19  20
ATOM     20  N   UNL     1      15.496  83.333  94.243  0.00  0.00    -0.302 NA
ATOM     21  C   UNL     1      16.894  83.889  94.529  0.00  0.00    +0.066 C 
ATOM     22  C   UNL     1      17.342  83.578  95.994  0.00  0.00    -0.064 C 
ATOM     23  N   UNL     1      17.302  82.066  96.226  0.00  0.00    +0.379 N 
ATOM     24  C   UNL     1      17.778  81.766  97.584  0.00  0.00    -0.096 C 
ATOM     25  H   UNL     1      18.012  81.595  95.507  0.00  0.00    -0.082 HD
ATOM     26  C   UNL     1      15.916  81.505  95.941  0.00  0.00    -0.064 C 
ATOM     27  C   UNL     1      15.469  81.845  94.493  0.00  0.00    +0.066 C 
ENDBRANCH  19  20
ENDBRANCH  18  19
ENDBRANCH  14  15
ENDBRANCH  12  13
TORSDOF 6
ENDMDL
MODEL 3
REMARK VINA RESULT:      -9.2      2.482     13.013
REMARK  Name = C:\Users\Docking\Desktop\test protocol\1iep_ligandH.pdb
REMARK  8 active torsions:
REMARK  status: ('A' for Active; 'I' for Inactive)
REMARK    1  A    between atoms: _5  and  _11
REMARK    2  A    between atoms: _19  and  _21
REMARK    3  A    between atoms: _22  and  _66
REMARK    4  A    between atoms: _27  and  _30
REMARK    5  A    between atoms: _32  and  _33
REMARK    6  A    between atoms: _38  and  _43
REMARK    7  A    between atoms: _43  and  _46
REMARK    8  A    between atoms: _53  and  _55
REMARK                            x       y       z     vdW  Elec       q    Type
REMARK                         _______ _______ _______ _____ _____    ______ ____
ROOT
ATOM     10  C   UNL     1       7.035  80.133  93.306  0.00  0.00    +0.038 A 
ATOM     11  C   UNL     1       5.862  80.929  93.264  0.00  0.00    +0.047 A 
ATOM     12  C   UNL     1       4.541  80.321  93.217  0.00  0.00    +0.035 A 
ATOM     32  C   UNL     1       4.452  78.898  93.217  0.00  0.00    +0.024 A 
ATOM     33  C   UNL     1       5.634  78.074  93.258  0.00  0.00    +0.007 A 
ATOM     34  C   UNL     1       6.940  78.668  93.302  0.00  0.00    -0.029 A 
ATOM     35  C   UNL     1       8.172  77.735  93.339  0.00  0.00    +0.045 C 
ENDROOT
BRANCH  10   9
ATOM      4  C   UNL     1      10.066  83.598  91.948  0.00  0.00    +0.077 A 
ATOM      5  C   UNL     1       9.101  84.174  91.056  0.00  0.00    +0.048 A 
ATOM      6  C   UNL     1       7.840  83.543  90.970  0.00  0.00    +0.116 A 
ATOM      7  N   UNL     1       7.573  82.422  91.725  0.00  0.00    -0.223 NA
ATOM      8  C   UNL     1       8.526  81.891  92.575  0.00  0.00    +0.220 A 
ATOM      9  N   UNL     1       8.277  80.769  93.350  0.00  0.00    -0.283 N 
ATOM     36  H   UNL     1       9.009  80.404  93.959  0.00  0.00    +0.155 HD
ATOM     37  N   UNL     1       9.739  82.474  92.674  0.00  0.00    -0.214 NA
BRANCH   4   3
ATOM      1  C   UNL     1      13.695  84.908  91.306  0.00  0.00    +0.020 A 
ATOM      2  C   UNL     1      12.377  84.371  91.056  0.00  0.00    +0.013 A 
ATOM      3  C   UNL     1      11.442  84.151  92.152  0.00  0.00    +0.019 A 
ATOM     38  C   UNL     1      11.874  84.489  93.499  0.00  0.00    +0.120 A 
ATOM     39  N   UNL     1      13.150  85.004  93.710  0.00  0.00    -0.263 NA
ATOM     40  C   UNL     1      14.059  85.218  92.663  0.00  0.00    +0.111 A 
ENDBRANCH   4   3
ENDBRANCH  10   9
BRANCH  12  13
ATOM     13  N   UNL     1       3.315  81.078  93.165  0.00  0.00    -0.281 N 
ATOM     14  C   UNL     1       2.750  81.710  92.069  0.00  0.00    +0.248 C 
ATOM     30  O   UNL     1       3.327  81.901  91.009  0.00  0.00    -0.270 OA
ATOM     31  H   UNL     1       2.801  81.157  94.043  0.00  0.00    +0.155 HD
BRANCH  14  15
ATOM     15  C   UNL     1       1.348  82.216  92.171  0.00  0.00    +0.037 A 
ATOM     16  C   UNL     1       0.579  82.081  93.411  0.00  0.00    +0.013 A 
ATOM     17  C   UNL     1      -0.778  82.562  93.478  0.00  0.00    +0.005 A 
ATOM     18  C   UNL     1      -1.375  83.185  92.299  0.00  0.00    -0.033 A 
ATOM     28  C   UNL     1      -0.588  83.311  91.083  0.00  0.00    +0.005 A 
ATOM     29  C   UNL     1       0.742  82.840  91.014  0.00  0.00    +0.013 A 
BRANCH  18  19
ATOM     19  C   UNL     1      -2.823  83.708  92.272  0.00  0.00    +0.119 C 
BRANCH  19  20
ATOM     20  N   UNL     1      -3.088  84.948  91.484  0.00  0.00    -0.302 NA
ATOM     21  C   UNL     1      -2.679  86.212  92.246  0.00  0.00    +0.066 C 
ATOM     22  C   UNL     1      -2.942  87.499  91.398  0.00  0.00    -0.064 C 
ATOM     23  N   UNL     1      -4.420  87.556  91.009  0.00  0.00    +0.379 N 
ATOM     24  C   UNL     1      -4.683  88.794  90.260  0.00  0.00    -0.096 C 
ATOM     25  H   UNL     1      -5.016  87.596  91.950  0.00  0.00    -0.082 HD
ATOM     26  C   UNL     1      -4.836  86.302  90.253  0.00  0.00    -0.064 C 
ATOM     27  C   UNL     1      -4.543  85.027  91.092  0.00  0.00    +0.066 C 
ENDBRANCH  19  20
ENDBRANCH  18  19
ENDBRANCH  14  15
ENDBRANCH  12  13
TORSDOF 6
ENDMDL
MODEL 4
REMARK VINA RESULT:      -9.1      2.388     13.503
REMARK  Name = C:\Users\Docking\Desktop\test protocol\1iep_ligandH.pdb
REMARK  8 active torsions:
REMARK  status: ('A' for Active; 'I' for Inactive)
REMARK    1  A    between atoms: _5  and  _11
REMARK    2  A    between atoms: _19  and  _21
REMARK    3  A    between atoms: _22  and  _66
REMARK    4  A    between atoms: _27  and  _30
REMARK    5  A    between atoms: _32  and  _33
REMARK    6  A    between atoms: _38  and  _43
REMARK    7  A    between atoms: _43  and  _46
REMARK    8  A    between atoms: _53  and  _55
REMARK                            x       y       z     vdW  Elec       q    Type
REMARK                         _______ _______ _______ _____ _____    ______ ____
ROOT
ATOM     10  C   UNL     1       7.223  80.064  93.234  0.00  0.00    +0.038 A 
ATOM     11  C   UNL     1       6.058  80.871  93.203  0.00  0.00    +0.047 A 
ATOM     12  C   UNL     1       4.730  80.276  93.203  0.00  0.00    +0.035 A 
ATOM     32  C   UNL     1       4.626  78.855  93.237  0.00  0.00    +0.024 A 
ATOM     33  C   UNL     1       5.801  78.019  93.267  0.00  0.00    +0.007 A 
ATOM     34  C   UNL     1       7.113  78.600  93.265  0.00  0.00    -0.029 A 
ATOM     35  C   UNL     1       8.337  77.655  93.291  0.00  0.00    +0.045 C 
ENDROOT
BRANCH  10   9
ATOM      4  C   UNL     1      10.175  83.625  91.951  0.00  0.00    +0.077 A 
ATOM      5  C   UNL     1       9.148  84.284  91.198  0.00  0.00    +0.048 A 
ATOM      6  C   UNL     1       7.875  83.670  91.159  0.00  0.00    +0.116 A 
ATOM      7  N   UNL     1       7.658  82.486  91.829  0.00  0.00    -0.223 NA
ATOM      8  C   UNL     1       8.671  81.875  92.545  0.00  0.00    +0.220 A 
ATOM      9  N   UNL     1       8.473  80.687  93.232  0.00  0.00    -0.283 N 
ATOM     36  H   UNL     1       9.248  80.265  93.743  0.00  0.00    +0.155 HD
ATOM     37  N   UNL     1       9.895  82.440  92.596  0.00  0.00    -0.214 NA
BRANCH   4   3
ATOM      1  C   UNL     1      13.848  84.714  91.165  0.00  0.00    +0.020 A 
ATOM      2  C   UNL     1      12.513  84.196  90.979  0.00  0.00    +0.013 A 
ATOM      3  C   UNL     1      11.570  84.150  92.089  0.00  0.00    +0.019 A 
ATOM     38  C   UNL     1      12.013  84.641  93.385  0.00  0.00    +0.120 A 
ATOM     39  N   UNL     1      13.306  85.133  93.535  0.00  0.00    -0.263 NA
ATOM     40  C   UNL     1      14.223  85.180  92.474  0.00  0.00    +0.111 A 
ENDBRANCH   4   3
ENDBRANCH  10   9
BRANCH  12  13
ATOM     13  N   UNL     1       3.511  81.045  93.165  0.00  0.00    -0.281 N 
ATOM     14  C   UNL     1       2.892  81.606  92.060  0.00  0.00    +0.248 C 
ATOM     30  O   UNL     1       3.409  81.712  90.958  0.00  0.00    -0.270 OA
ATOM     31  H   UNL     1       3.048  81.195  94.062  0.00  0.00    +0.155 HD
BRANCH  14  15
ATOM     15  C   UNL     1       1.502  82.138  92.203  0.00  0.00    +0.037 A 
ATOM     16  C   UNL     1       0.750  81.973  93.450  0.00  0.00    +0.013 A 
ATOM     17  C   UNL     1      -0.595  82.481  93.556  0.00  0.00    +0.005 A 
ATOM     18  C   UNL     1      -1.196  83.160  92.410  0.00  0.00    -0.033 A 
ATOM     28  C   UNL     1      -0.426  83.314  91.188  0.00  0.00    +0.005 A 
ATOM     29  C   UNL     1       0.892  82.816  91.080  0.00  0.00    +0.013 A 
BRANCH  18  19
ATOM     19  C   UNL     1      -2.633  83.714  92.427  0.00  0.00    +0.119 C 
BRANCH  19  20
ATOM     20  N   UNL     1      -3.744  82.730  92.591  0.00  0.00    -0.302 NA
ATOM     21  C   UNL     1      -4.368  82.339  91.249  0.00  0.00    +0.066 C 
ATOM     22  C   UNL     1      -5.514  81.292  91.438  0.00  0.00    -0.064 C 
ATOM     23  N   UNL     1      -6.573  81.863  92.382  0.00  0.00    +0.379 N 
ATOM     24  C   UNL     1      -7.680  80.905  92.516  0.00  0.00    -0.096 C 
ATOM     25  H   UNL     1      -6.981  82.788  91.912  0.00  0.00    -0.082 HD
ATOM     26  C   UNL     1      -5.960  82.258  93.719  0.00  0.00    -0.064 C 
ATOM     27  C   UNL     1      -4.803  83.276  93.517  0.00  0.00    +0.066 C 
ENDBRANCH  19  20
ENDBRANCH  18  19
ENDBRANCH  14  15
ENDBRANCH  12  13
TORSDOF 6
ENDMDL
MODEL 5
REMARK VINA RESULT:      -9.0      5.288      6.386
REMARK  Name = C:\Users\Docking\Desktop\test protocol\1iep_ligandH.pdb
REMARK  8 active torsions:
REMARK  status: ('A' for Active; 'I' for Inactive)
REMARK    1  A    between atoms: _5  and  _11
REMARK    2  A    between atoms: _19  and  _21
REMARK    3  A    between atoms: _22  and  _66
REMARK    4  A    between atoms: _27  and  _30
REMARK    5  A    between atoms: _32  and  _33
REMARK    6  A    between atoms: _38  and  _43
REMARK    7  A    between atoms: _43  and  _46
REMARK    8  A    between atoms: _53  and  _55
REMARK                            x       y       z     vdW  Elec       q    Type
REMARK                         _______ _______ _______ _____ _____    ______ ____
ROOT
ATOM     10  C   UNL     1       5.584  84.811  88.915  0.00  0.00    +0.038 A 
ATOM     11  C   UNL     1       6.918  85.012  89.355  0.00  0.00    +0.047 A 
ATOM     12  C   UNL     1       7.667  83.943  89.998  0.00  0.00    +0.035 A 
ATOM     32  C   UNL     1       7.029  82.681  90.173  0.00  0.00    +0.024 A 
ATOM     33  C   UNL     1       5.674  82.460  89.733  0.00  0.00    +0.007 A 
ATOM     34  C   UNL     1       4.928  83.511  89.101  0.00  0.00    -0.029 A 
ATOM     35  C   UNL     1       3.477  83.219  88.655  0.00  0.00    +0.045 C 
ENDROOT
BRANCH  10   9
ATOM      4  C   UNL     1       4.348  87.376  85.052  0.00  0.00    +0.077 A 
ATOM      5  C   UNL     1       5.130  86.549  84.179  0.00  0.00    +0.048 A 
ATOM      6  C   UNL     1       5.842  85.478  84.765  0.00  0.00    +0.116 A 
ATOM      7  N   UNL     1       5.768  85.260  86.124  0.00  0.00    -0.223 NA
ATOM      8  C   UNL     1       5.006  86.077  86.937  0.00  0.00    +0.220 A 
ATOM      9  N   UNL     1       4.911  85.872  88.305  0.00  0.00    -0.283 N 
ATOM     36  H   UNL     1       4.344  86.502  88.872  0.00  0.00    +0.155 HD
ATOM     37  N   UNL     1       4.318  87.108  86.402  0.00  0.00    -0.214 NA
BRANCH   4   3
ATOM      1  C   UNL     1       1.413  89.901  84.494  0.00  0.00    +0.020 A 
ATOM      2  C   UNL     1       2.151  88.756  84.976  0.00  0.00    +0.013 A 
ATOM      3  C   UNL     1       3.538  88.544  84.582  0.00  0.00    +0.019 A 
ATOM     38  C   UNL     1       4.154  89.518  83.693  0.00  0.00    +0.120 A 
ATOM     39  N   UNL     1       3.419  90.610  83.244  0.00  0.00    -0.263 NA
ATOM     40  C   UNL     1       2.082  90.823  83.615  0.00  0.00    +0.111 A 
ENDBRANCH   4   3
ENDBRANCH  10   9
BRANCH  12  13
ATOM     13  N   UNL     1       9.021  84.091  90.472  0.00  0.00    -0.281 N 
ATOM     14  C   UNL     1       9.465  84.118  91.784  0.00  0.00    +0.248 C 
ATOM     30  O   UNL     1       8.737  84.233  92.758  0.00  0.00    -0.270 OA
ATOM     31  H   UNL     1       9.739  84.188  89.754  0.00  0.00    +0.155 HD
BRANCH  14  15
ATOM     15  C   UNL     1      10.932  84.016  92.051  0.00  0.00    +0.037 A 
ATOM     16  C   UNL     1      11.439  83.619  93.368  0.00  0.00    +0.013 A 
ATOM     17  C   UNL     1      12.859  83.546  93.604  0.00  0.00    +0.005 A 
ATOM     18  C   UNL     1      13.783  83.868  92.519  0.00  0.00    -0.033 A 
ATOM     28  C   UNL     1      13.253  84.253  91.221  0.00  0.00    +0.005 A 
ATOM     29  C   UNL     1      11.862  84.328  90.987  0.00  0.00    +0.013 A 
BRANCH  18  19
ATOM     19  C   UNL     1      15.314  83.837  92.687  0.00  0.00    +0.119 C 
BRANCH  19  20
ATOM     20  N   UNL     1      16.074  82.864  91.846  0.00  0.00    -0.302 NA
ATOM     21  C   UNL     1      16.323  81.543  92.579  0.00  0.00    +0.066 C 
ATOM     22  C   UNL     1      17.100  80.529  91.677  0.00  0.00    -0.064 C 
ATOM     23  N   UNL     1      18.421  81.157  91.230  0.00  0.00    +0.379 N 
ATOM     24  C   UNL     1      19.180  80.185  90.430  0.00  0.00    -0.096 C 
ATOM     25  H   UNL     1      19.016  81.380  92.146  0.00  0.00    -0.082 HD
ATOM     26  C   UNL     1      18.183  82.473  90.503  0.00  0.00    -0.064 C 
ATOM     27  C   UNL     1      17.385  83.462  91.397  0.00  0.00    +0.066 C 
ENDBRANCH  19  20
ENDBRANCH  18  19
ENDBRANCH  14  15
ENDBRANCH  12  13
TORSDOF 6
ENDMDL
