MODEL 1
REMARK VINA RESULT:      -8.6      0.000      0.000
REMARK  Name = C:\Users\Docking\Desktop\test protocol\1iep_ligandH.pdb
REMARK  8 active torsions:
REMARK  status: ('A' for Active; 'I' for Inactive)
REMARK    1  A    between atoms: _5  and  _11
REMARK    2  A    between atoms: _19  and  _21
REMARK    3  A    between atoms: _22  and  _66
REMARK    4  A    between atoms: _27  and  _30
REMARK    5  A    between atoms: _32  and  _33
REMARK    6  A    between atoms: _38  and  _43
REMARK    7  A    between atoms: _43  and  _46
REMARK    8  A    between atoms: _53  and  _55
REMARK                            x       y       z     vdW  Elec       q    Type
REMARK                         _______ _______ _______ _____ _____    ______ ____
ROOT
ATOM     10  C   UNL     1      18.224  81.818  93.009  0.00  0.00    +0.038 A 
ATOM     11  C   UNL     1      16.843  81.860  92.688  0.00  0.00    +0.047 A 
ATOM     12  C   UNL     1      15.902  82.602  93.513  0.00  0.00    +0.035 A 
ATOM     32  C   UNL     1      16.402  83.291  94.656  0.00  0.00    +0.024 A 
ATOM     33  C   UNL     1      17.803  83.258  94.997  0.00  0.00    +0.007 A 
ATOM     34  C   UNL     1      18.736  82.526  94.188  0.00  0.00    -0.029 A 
ATOM     35  C   UNL     1      20.225  82.520  94.605  0.00  0.00    +0.045 C 
ENDROOT
BRANCH  10   9
ATOM      4  C   UNL     1      21.027  81.405  89.134  0.00  0.00    +0.077 A 
ATOM      5  C   UNL     1      20.734  82.742  88.706  0.00  0.00    +0.048 A 
ATOM      6  C   UNL     1      19.851  83.501  89.508  0.00  0.00    +0.116 A 
ATOM      7  N   UNL     1      19.309  82.953  90.650  0.00  0.00    -0.223 NA
ATOM      8  C   UNL     1      19.611  81.659  91.033  0.00  0.00    +0.220 A 
ATOM      9  N   UNL     1      19.084  81.091  92.182  0.00  0.00    -0.283 N 
ATOM     36  H   UNL     1      19.326  80.131  92.426  0.00  0.00    +0.155 HD
ATOM     37  N   UNL     1      20.450  80.914  90.284  0.00  0.00    -0.214 NA
BRANCH   4   3
ATOM      1  C   UNL     1      24.151  79.300  88.081  0.00  0.00    +0.020 A 
ATOM      2  C   UNL     1      23.307  80.202  88.830  0.00  0.00    +0.013 A 
ATOM      3  C   UNL     1      21.944  80.480  88.396  0.00  0.00    +0.019 A 
ATOM     38  C   UNL     1      21.461  79.823  87.190  0.00  0.00    +0.120 A 
ATOM     39  N   UNL     1      22.298  78.961  86.488  0.00  0.00    -0.263 NA
ATOM     40  C   UNL     1      23.612  78.687  86.896  0.00  0.00    +0.111 A 
ENDBRANCH   4   3
ENDBRANCH  10   9
BRANCH  12  13
ATOM     13  N   UNL     1      14.488  82.675  93.242  0.00  0.00    -0.281 N 
ATOM     14  C   UNL     1      13.749  83.783  92.860  0.00  0.00    +0.248 C 
ATOM     30  O   UNL     1      14.159  84.934  92.902  0.00  0.00    -0.270 OA
ATOM     31  H   UNL     1      13.968  81.803  93.343  0.00  0.00    +0.155 HD
BRANCH  14  15
ATOM     15  C   UNL     1      12.349  83.586  92.377  0.00  0.00    +0.037 A 
ATOM     16  C   UNL     1      11.789  82.245  92.195  0.00  0.00    +0.013 A 
ATOM     17  C   UNL     1      10.441  82.083  91.711  0.00  0.00    +0.005 A 
ATOM     18  C   UNL     1       9.643  83.268  91.406  0.00  0.00    -0.033 A 
ATOM     28  C   UNL     1      10.221  84.587  91.600  0.00  0.00    +0.005 A 
ATOM     29  C   UNL     1      11.542  84.749  92.074  0.00  0.00    +0.013 A 
BRANCH  18  19
ATOM     19  C   UNL     1       8.203  83.189  90.865  0.00  0.00    +0.119 C 
BRANCH  19  20
ATOM     20  N   UNL     1       8.032  82.833  89.424  0.00  0.00    -0.302 NA
ATOM     21  C   UNL     1       8.189  84.051  88.509  0.00  0.00    +0.066 C 
ATOM     22  C   UNL     1       8.030  83.656  87.005  0.00  0.00    -0.064 C 
ATOM     23  N   UNL     1       6.667  82.994  86.795  0.00  0.00    +0.379 N 
ATOM     24  C   UNL     1       6.491  82.674  85.371  0.00  0.00    -0.096 C 
ATOM     25  H   UNL     1       5.884  83.736  87.075  0.00  0.00    -0.082 HD
ATOM     26  C   UNL     1       6.502  81.784  87.704  0.00  0.00    -0.064 C 
ATOM     27  C   UNL     1       6.691  82.181  89.194  0.00  0.00    +0.066 C 
ENDBRANCH  19  20
ENDBRANCH  18  19
ENDBRANCH  14  15
ENDBRANCH  12  13
TORSDOF 6
ENDMDL
MODEL 2
REMARK VINA RESULT:      -8.4      6.895     11.629
REMARK  Name = C:\Users\Docking\Desktop\test protocol\1iep_ligandH.pdb
REMARK  8 active torsions:
REMARK  status: ('A' for Active; 'I' for Inactive)
REMARK    1  A    between atoms: _5  and  _11
REMARK    2  A    between atoms: _19  and  _21
REMARK    3  A    between atoms: _22  and  _66
REMARK    4  A    between atoms: _27  and  _30
REMARK    5  A    between atoms: _32  and  _33
REMARK    6  A    between atoms: _38  and  _43
REMARK    7  A    between atoms: _43  and  _46
REMARK    8  A    between atoms: _53  and  _55
REMARK                            x       y       z     vdW  Elec       q    Type
REMARK                         _______ _______ _______ _____ _____    ______ ____
ROOT
ATOM     10  C   UNL     1       7.297  79.130  92.446  0.00  0.00    +0.038 A 
ATOM     11  C   UNL     1       6.148  79.962  92.418  0.00  0.00    +0.047 A 
ATOM     12  C   UNL     1       4.815  79.400  92.267  0.00  0.00    +0.035 A 
ATOM     32  C   UNL     1       4.688  77.985  92.149  0.00  0.00    +0.024 A 
ATOM     33  C   UNL     1       5.844  77.125  92.175  0.00  0.00    +0.007 A 
ATOM     34  C   UNL     1       7.162  77.674  92.321  0.00  0.00    -0.029 A 
ATOM     35  C   UNL     1       8.367  76.704  92.336  0.00  0.00    +0.045 C 
ENDROOT
BRANCH  10   9
ATOM      4  C   UNL     1      10.435  82.662  91.601  0.00  0.00    +0.077 A 
ATOM      5  C   UNL     1       9.503  83.373  90.774  0.00  0.00    +0.048 A 
ATOM      6  C   UNL     1       8.229  82.792  90.586  0.00  0.00    +0.116 A 
ATOM      7  N   UNL     1       7.920  81.590  91.185  0.00  0.00    -0.223 NA
ATOM      8  C   UNL     1       8.843  80.930  91.975  0.00  0.00    +0.220 A 
ATOM      9  N   UNL     1       8.552  79.724  92.594  0.00  0.00    -0.283 N 
ATOM     36  H   UNL     1       9.263  79.264  93.163  0.00  0.00    +0.155 HD
ATOM     37  N   UNL     1      10.067  81.463  92.169  0.00  0.00    -0.214 NA
BRANCH   4   3
ATOM      1  C   UNL     1      14.302  83.233  91.459  0.00  0.00    +0.020 A 
ATOM      2  C   UNL     1      12.987  82.733  91.131  0.00  0.00    +0.013 A 
ATOM      3  C   UNL     1      11.819  83.149  91.898  0.00  0.00    +0.019 A 
ATOM     38  C   UNL     1      12.018  84.080  92.998  0.00  0.00    +0.120 A 
ATOM     39  N   UNL     1      13.297  84.544  93.292  0.00  0.00    -0.263 NA
ATOM     40  C   UNL     1      14.428  84.149  92.562  0.00  0.00    +0.111 A 
ENDBRANCH   4   3
ENDBRANCH  10   9
BRANCH  12  13
ATOM     13  N   UNL     1       3.613  80.196  92.223  0.00  0.00    -0.281 N 
ATOM     14  C   UNL     1       2.966  80.701  91.107  0.00  0.00    +0.248 C 
ATOM     30  O   UNL     1       3.444  80.724  89.983  0.00  0.00    -0.270 OA
ATOM     31  H   UNL     1       3.188  80.413  93.125  0.00  0.00    +0.155 HD
BRANCH  14  15
ATOM     15  C   UNL     1       1.596  81.276  91.266  0.00  0.00    +0.037 A 
ATOM     16  C   UNL     1       0.960  82.034  90.186  0.00  0.00    +0.013 A 
ATOM     17  C   UNL     1      -0.356  82.593  90.371  0.00  0.00    +0.005 A 
ATOM     18  C   UNL     1      -1.046  82.393  91.643  0.00  0.00    -0.033 A 
ATOM     28  C   UNL     1      -0.394  81.631  92.696  0.00  0.00    +0.005 A 
ATOM     29  C   UNL     1       0.896  81.084  92.518  0.00  0.00    +0.013 A 
BRANCH  18  19
ATOM     19  C   UNL     1      -2.443  82.970  91.936  0.00  0.00    +0.119 C 
BRANCH  19  20
ATOM     20  N   UNL     1      -3.022  83.906  90.927  0.00  0.00    -0.302 NA
ATOM     21  C   UNL     1      -2.960  85.364  91.393  0.00  0.00    +0.066 C 
ATOM     22  C   UNL     1      -3.548  86.331  90.315  0.00  0.00    -0.064 C 
ATOM     23  N   UNL     1      -4.989  85.924  90.001  0.00  0.00    +0.379 N 
ATOM     24  C   UNL     1      -5.565  86.867  89.031  0.00  0.00    -0.096 C 
ATOM     25  H   UNL     1      -5.577  86.008  90.944  0.00  0.00    -0.082 HD
ATOM     26  C   UNL     1      -5.060  84.476  89.539  0.00  0.00    -0.064 C 
ATOM     27  C   UNL     1      -4.446  83.525  90.605  0.00  0.00    +0.066 C 
ENDBRANCH  19  20
ENDBRANCH  18  19
ENDBRANCH  14  15
ENDBRANCH  12  13
TORSDOF 6
ENDMDL
MODEL 3
REMARK VINA RESULT:      -8.3      7.262     12.171
REMARK  Name = C:\Users\Docking\Desktop\test protocol\1iep_ligandH.pdb
REMARK  8 active torsions:
REMARK  status: ('A' for Active; 'I' for Inactive)
REMARK    1  A    between atoms: _5  and  _11
REMARK    2  A    between atoms: _19  and  _21
REMARK    3  A    between atoms: _22  and  _66
REMARK    4  A    between atoms: _27  and  _30
REMARK    5  A    between atoms: _32  and  _33
REMARK    6  A    between atoms: _38  and  _43
REMARK    7  A    between atoms: _43  and  _46
REMARK    8  A    between atoms: _53  and  _55
REMARK                            x       y       z     vdW  Elec       q    Type
REMARK                         _______ _______ _______ _____ _____    ______ ____
ROOT
ATOM     10  C   UNL     1       6.796  79.237  92.499  0.00  0.00    +0.038 A 
ATOM     11  C   UNL     1       5.640  80.059  92.481  0.00  0.00    +0.047 A 
ATOM     12  C   UNL     1       4.313  79.488  92.309  0.00  0.00    +0.035 A 
ATOM     32  C   UNL     1       4.200  78.075  92.160  0.00  0.00    +0.024 A 
ATOM     33  C   UNL     1       5.364  77.225  92.174  0.00  0.00    +0.007 A 
ATOM     34  C   UNL     1       6.676  77.782  92.342  0.00  0.00    -0.029 A 
ATOM     35  C   UNL     1       7.889  76.824  92.343  0.00  0.00    +0.045 C 
ENDROOT
BRANCH  10   9
ATOM      4  C   UNL     1      10.050  82.603  91.445  0.00  0.00    +0.077 A 
ATOM      5  C   UNL     1       9.200  83.199  90.454  0.00  0.00    +0.048 A 
ATOM      6  C   UNL     1       7.936  82.604  90.241  0.00  0.00    +0.116 A 
ATOM      7  N   UNL     1       7.561  81.497  90.971  0.00  0.00    -0.223 NA
ATOM      8  C   UNL     1       8.405  80.946  91.917  0.00  0.00    +0.220 A 
ATOM      9  N   UNL     1       8.045  79.838  92.668  0.00  0.00    -0.283 N 
ATOM     36  H   UNL     1       8.699  79.458  93.351  0.00  0.00    +0.155 HD
ATOM     37  N   UNL     1       9.618  81.495  92.138  0.00  0.00    -0.214 NA
BRANCH   4   3
ATOM      1  C   UNL     1      13.909  83.245  91.436  0.00  0.00    +0.020 A 
ATOM      2  C   UNL     1      12.616  82.717  91.067  0.00  0.00    +0.013 A 
ATOM      3  C   UNL     1      11.413  83.119  91.786  0.00  0.00    +0.019 A 
ATOM     38  C   UNL     1      11.555  84.065  92.883  0.00  0.00    +0.120 A 
ATOM     39  N   UNL     1      12.814  84.555  93.218  0.00  0.00    -0.263 NA
ATOM     40  C   UNL     1      13.978  84.175  92.533  0.00  0.00    +0.111 A 
ENDBRANCH   4   3
ENDBRANCH  10   9
BRANCH  12  13
ATOM     13  N   UNL     1       3.104  80.273  92.274  0.00  0.00    -0.281 N 
ATOM     14  C   UNL     1       2.548  80.933  91.191  0.00  0.00    +0.248 C 
ATOM     30  O   UNL     1       3.123  81.126  90.130  0.00  0.00    -0.270 OA
ATOM     31  H   UNL     1       2.597  80.352  93.156  0.00  0.00    +0.155 HD
BRANCH  14  15
ATOM     15  C   UNL     1       1.158  81.469  91.308  0.00  0.00    +0.037 A 
ATOM     16  C   UNL     1       0.546  82.240  90.222  0.00  0.00    +0.013 A 
ATOM     17  C   UNL     1      -0.790  82.760  90.368  0.00  0.00    +0.005 A 
ATOM     18  C   UNL     1      -1.525  82.510  91.606  0.00  0.00    -0.033 A 
ATOM     28  C   UNL     1      -0.896  81.738  92.665  0.00  0.00    +0.005 A 
ATOM     29  C   UNL     1       0.414  81.227  92.526  0.00  0.00    +0.013 A 
BRANCH  18  19
ATOM     19  C   UNL     1      -2.948  83.044  91.856  0.00  0.00    +0.119 C 
BRANCH  19  20
ATOM     20  N   UNL     1      -4.082  82.096  91.645  0.00  0.00    -0.302 NA
ATOM     21  C   UNL     1      -4.500  81.402  92.945  0.00  0.00    +0.066 C 
ATOM     22  C   UNL     1      -5.702  80.430  92.710  0.00  0.00    -0.064 C 
ATOM     23  N   UNL     1      -5.321  79.401  91.645  0.00  0.00    +0.379 N 
ATOM     24  C   UNL     1      -6.428  78.450  91.464  0.00  0.00    -0.096 C 
ATOM     25  H   UNL     1      -4.443  78.829  92.026  0.00  0.00    -0.082 HD
ATOM     26  C   UNL     1      -4.901  80.082  90.350  0.00  0.00    -0.064 C 
ATOM     27  C   UNL     1      -3.726  81.067  90.600  0.00  0.00    +0.066 C 
ENDBRANCH  19  20
ENDBRANCH  18  19
ENDBRANCH  14  15
ENDBRANCH  12  13
TORSDOF 6
ENDMDL
MODEL 4
REMARK VINA RESULT:      -8.2      1.733      2.452
REMARK  Name = C:\Users\Docking\Desktop\test protocol\1iep_ligandH.pdb
REMARK  8 active torsions:
REMARK  status: ('A' for Active; 'I' for Inactive)
REMARK    1  A    between atoms: _5  and  _11
REMARK    2  A    between atoms: _19  and  _21
REMARK    3  A    between atoms: _22  and  _66
REMARK    4  A    between atoms: _27  and  _30
REMARK    5  A    between atoms: _32  and  _33
REMARK    6  A    between atoms: _38  and  _43
REMARK    7  A    between atoms: _43  and  _46
REMARK    8  A    between atoms: _53  and  _55
REMARK                            x       y       z     vdW  Elec       q    Type
REMARK                         _______ _______ _______ _____ _____    ______ ____
ROOT
ATOM     10  C   UNL     1      18.691  82.012  93.294  0.00  0.00    +0.038 A 
ATOM     11  C   UNL     1      17.319  82.113  92.948  0.00  0.00    +0.047 A 
ATOM     12  C   UNL     1      16.376  82.811  93.808  0.00  0.00    +0.035 A 
ATOM     32  C   UNL     1      16.864  83.396  95.012  0.00  0.00    +0.024 A 
ATOM     33  C   UNL     1      18.255  83.302  95.379  0.00  0.00    +0.007 A 
ATOM     34  C   UNL     1      19.190  82.613  94.536  0.00  0.00    -0.029 A 
ATOM     35  C   UNL     1      20.668  82.537  94.984  0.00  0.00    +0.045 C 
ENDROOT
BRANCH  10   9
ATOM      4  C   UNL     1      21.188  81.664  89.210  0.00  0.00    +0.077 A 
ATOM      5  C   UNL     1      20.715  82.936  88.743  0.00  0.00    +0.048 A 
ATOM      6  C   UNL     1      19.825  83.644  89.581  0.00  0.00    +0.116 A 
ATOM      7  N   UNL     1      19.443  83.112  90.793  0.00  0.00    -0.223 NA
ATOM      8  C   UNL     1      19.917  81.882  91.212  0.00  0.00    +0.220 A 
ATOM      9  N   UNL     1      19.552  81.331  92.431  0.00  0.00    -0.283 N 
ATOM     36  H   UNL     1      19.918  80.418  92.701  0.00  0.00    +0.155 HD
ATOM     37  N   UNL     1      20.767  81.185  90.430  0.00  0.00    -0.214 NA
BRANCH   4   3
ATOM      1  C   UNL     1      22.649  78.899  86.861  0.00  0.00    +0.020 A 
ATOM      2  C   UNL     1      21.693  79.705  87.584  0.00  0.00    +0.013 A 
ATOM      3  C   UNL     1      22.136  80.798  88.440  0.00  0.00    +0.019 A 
ATOM     38  C   UNL     1      23.565  81.052  88.543  0.00  0.00    +0.120 A 
ATOM     39  N   UNL     1      24.463  80.258  87.836  0.00  0.00    -0.263 NA
ATOM     40  C   UNL     1      24.048  79.202  87.011  0.00  0.00    +0.111 A 
ENDBRANCH   4   3
ENDBRANCH  10   9
BRANCH  12  13
ATOM     13  N   UNL     1      14.970  82.939  93.512  0.00  0.00    -0.281 N 
ATOM     14  C   UNL     1      14.373  83.721  92.537  0.00  0.00    +0.248 C 
ATOM     30  O   UNL     1      14.946  84.597  91.906  0.00  0.00    -0.270 OA
ATOM     31  H   UNL     1      14.339  82.387  94.093  0.00  0.00    +0.155 HD
BRANCH  14  15
ATOM     15  C   UNL     1      12.926  83.508  92.227  0.00  0.00    +0.037 A 
ATOM     16  C   UNL     1      12.424  82.199  91.803  0.00  0.00    +0.013 A 
ATOM     17  C   UNL     1      11.027  82.026  91.494  0.00  0.00    +0.005 A 
ATOM     18  C   UNL     1      10.121  83.166  91.610  0.00  0.00    -0.033 A 
ATOM     28  C   UNL     1      10.644  84.452  92.039  0.00  0.00    +0.005 A 
ATOM     29  C   UNL     1      12.013  84.626  92.341  0.00  0.00    +0.013 A 
BRANCH  18  19
ATOM     19  C   UNL     1       8.619  83.078  91.281  0.00  0.00    +0.119 C 
BRANCH  19  20
ATOM     20  N   UNL     1       7.971  81.736  91.394  0.00  0.00    -0.302 NA
ATOM     21  C   UNL     1       6.824  81.566  90.394  0.00  0.00    +0.066 C 
ATOM     22  C   UNL     1       6.173  80.149  90.511  0.00  0.00    -0.064 C 
ATOM     23  N   UNL     1       5.680  79.934  91.943  0.00  0.00    +0.379 N 
ATOM     24  C   UNL     1       5.015  78.627  92.042  0.00  0.00    -0.096 C 
ATOM     25  H   UNL     1       4.918  80.718  92.159  0.00  0.00    -0.082 HD
ATOM     26  C   UNL     1       6.814  80.105  92.944  0.00  0.00    -0.064 C 
ATOM     27  C   UNL     1       7.473  81.505  92.799  0.00  0.00    +0.066 C 
ENDBRANCH  19  20
ENDBRANCH  18  19
ENDBRANCH  14  15
ENDBRANCH  12  13
TORSDOF 6
ENDMDL
MODEL 5
REMARK VINA RESULT:      -8.1     25.605     29.403
REMARK  Name = C:\Users\Docking\Desktop\test protocol\1iep_ligandH.pdb
REMARK  8 active torsions:
REMARK  status: ('A' for Active; 'I' for Inactive)
REMARK    1  A    between atoms: _5  and  _11
REMARK    2  A    between atoms: _19  and  _21
REMARK    3  A    between atoms: _22  and  _66
REMARK    4  A    between atoms: _27  and  _30
REMARK    5  A    between atoms: _32  and  _33
REMARK    6  A    between atoms: _38  and  _43
REMARK    7  A    between atoms: _43  and  _46
REMARK    8  A    between atoms: _53  and  _55
REMARK                            x       y       z     vdW  Elec       q    Type
REMARK                         _______ _______ _______ _____ _____    ______ ____
ROOT
ATOM     10  C   UNL     1       2.768  80.382 116.774  0.00  0.00    +0.038 A 
ATOM     11  C   UNL     1       3.632  79.430 116.176  0.00  0.00    +0.047 A 
ATOM     12  C   UNL     1       4.120  78.282 116.924  0.00  0.00    +0.035 A 
ATOM     32  C   UNL     1       3.705  78.134 118.280  0.00  0.00    +0.024 A 
ATOM     33  C   UNL     1       2.829  79.093 118.904  0.00  0.00    +0.007 A 
ATOM     34  C   UNL     1       2.346  80.229 118.172  0.00  0.00    -0.029 A 
ATOM     35  C   UNL     1       1.413  81.229 118.894  0.00  0.00    +0.045 C 
ENDROOT
BRANCH  10   9
ATOM      4  C   UNL     1      -0.288  82.421 113.685  0.00  0.00    +0.077 A 
ATOM      5  C   UNL     1      -1.061  81.219 113.565  0.00  0.00    +0.048 A 
ATOM      6  C   UNL     1      -0.635  80.096 114.309  0.00  0.00    +0.116 A 
ATOM      7  N   UNL     1       0.483  80.181 115.111  0.00  0.00    -0.223 NA
ATOM      8  C   UNL     1       1.207  81.355 115.203  0.00  0.00    +0.220 A 
ATOM      9  N   UNL     1       2.330  81.465 116.009  0.00  0.00    -0.283 N 
ATOM     36  H   UNL     1       2.841  82.347 116.044  0.00  0.00    +0.155 HD
ATOM     37  N   UNL     1       0.821  82.441 114.501  0.00  0.00    -0.214 NA
BRANCH   4   3
ATOM      1  C   UNL     1      -0.186  86.113 112.395  0.00  0.00    +0.020 A 
ATOM      2  C   UNL     1       0.171  84.912 113.115  0.00  0.00    +0.013 A 
ATOM      3  C   UNL     1      -0.613  83.693 112.964  0.00  0.00    +0.019 A 
ATOM     38  C   UNL     1      -1.761  83.722 112.070  0.00  0.00    +0.120 A 
ATOM     39  N   UNL     1      -2.081  84.894 111.391  0.00  0.00    -0.263 NA
ATOM     40  C   UNL     1      -1.335  86.073 111.530  0.00  0.00    +0.111 A 
ENDBRANCH   4   3
ENDBRANCH  10   9
BRANCH  12  13
ATOM     13  N   UNL     1       5.005  77.287 116.373  0.00  0.00    -0.281 N 
ATOM     14  C   UNL     1       4.669  76.065 115.812  0.00  0.00    +0.248 C 
ATOM     30  O   UNL     1       3.566  75.547 115.894  0.00  0.00    -0.270 OA
ATOM     31  H   UNL     1       6.000  77.510 116.399  0.00  0.00    +0.155 HD
BRANCH  14  15
ATOM     15  C   UNL     1       5.715  75.302 115.064  0.00  0.00    +0.037 A 
ATOM     16  C   UNL     1       6.260  75.801 113.799  0.00  0.00    +0.013 A 
ATOM     17  C   UNL     1       7.256  75.036 113.090  0.00  0.00    +0.005 A 
ATOM     18  C   UNL     1       7.713  73.765 113.646  0.00  0.00    -0.033 A 
ATOM     28  C   UNL     1       7.159  73.297 114.905  0.00  0.00    +0.005 A 
ATOM     29  C   UNL     1       6.182  74.042 115.603  0.00  0.00    +0.013 A 
BRANCH  18  19
ATOM     19  C   UNL     1       8.756  72.873 112.946  0.00  0.00    +0.119 C 
BRANCH  19  20
ATOM     20  N   UNL     1       9.820  72.267 113.801  0.00  0.00    -0.302 NA
ATOM     21  C   UNL     1      10.894  73.287 114.190  0.00  0.00    +0.066 C 
ATOM     22  C   UNL     1      11.988  72.642 115.103  0.00  0.00    -0.064 C 
ATOM     23  N   UNL     1      12.612  71.448 114.378  0.00  0.00    +0.379 N 
ATOM     24  C   UNL     1      13.681  70.874 115.209  0.00  0.00    -0.096 C 
ATOM     25  H   UNL     1      13.080  71.828 113.441  0.00  0.00    -0.082 HD
ATOM     26  C   UNL     1      11.551  70.430 113.985  0.00  0.00    -0.064 C 
ATOM     27  C   UNL     1      10.453  71.089 113.103  0.00  0.00    +0.066 C 
ENDBRANCH  19  20
ENDBRANCH  18  19
ENDBRANCH  14  15
ENDBRANCH  12  13
TORSDOF 6
ENDMDL
