MODEL 1
REMARK VINA RESULT:      -8.1      0.000      0.000
REMARK  Name = C:\Users\Docking\Desktop\test protocol\1iep_ligandH.pdb
REMARK  8 active torsions:
REMARK  status: ('A' for Active; 'I' for Inactive)
REMARK    1  A    between atoms: _5  and  _11
REMARK    2  A    between atoms: _19  and  _21
REMARK    3  A    between atoms: _22  and  _66
REMARK    4  A    between atoms: _27  and  _30
REMARK    5  A    between atoms: _32  and  _33
REMARK    6  A    between atoms: _38  and  _43
REMARK    7  A    between atoms: _43  and  _46
REMARK    8  A    between atoms: _53  and  _55
REMARK                            x       y       z     vdW  Elec       q    Type
REMARK                         _______ _______ _______ _____ _____    ______ ____
ROOT
ATOM     10  C   UNL     1     -36.589  -1.502   1.063  0.00  0.00    +0.038 A 
ATOM     11  C   UNL     1     -35.216  -1.352   1.388  0.00  0.00    +0.047 A 
ATOM     12  C   UNL     1     -34.204  -2.210   0.792  0.00  0.00    +0.035 A 
ATOM     32  C   UNL     1     -34.624  -3.209  -0.134  0.00  0.00    +0.024 A 
ATOM     33  C   UNL     1     -36.015  -3.376  -0.474  0.00  0.00    +0.007 A 
ATOM     34  C   UNL     1     -37.019  -2.535   0.112  0.00  0.00    -0.029 A 
ATOM     35  C   UNL     1     -38.496  -2.763  -0.285  0.00  0.00    +0.045 C 
ENDROOT
BRANCH  10   9
ATOM      4  C   UNL     1     -39.472  -0.278   4.699  0.00  0.00    +0.077 A 
ATOM      5  C   UNL     1     -39.116  -1.446   5.453  0.00  0.00    +0.048 A 
ATOM      6  C   UNL     1     -38.194  -2.340   4.866  0.00  0.00    +0.116 A 
ATOM      7  N   UNL     1     -37.672  -2.076   3.618  0.00  0.00    -0.223 NA
ATOM      8  C   UNL     1     -38.037  -0.941   2.918  0.00  0.00    +0.220 A 
ATOM      9  N   UNL     1     -37.518  -0.652   1.665  0.00  0.00    -0.283 N 
ATOM     36  H   UNL     1     -37.819   0.192   1.178  0.00  0.00    +0.155 HD
ATOM     37  N   UNL     1     -38.918  -0.072   3.456  0.00  0.00    -0.214 NA
BRANCH   4   3
ATOM      1  C   UNL     1     -41.239   3.146   5.377  0.00  0.00    +0.020 A 
ATOM      2  C   UNL     1     -40.284   2.181   4.883  0.00  0.00    +0.013 A 
ATOM      3  C   UNL     1     -40.432   0.763   5.186  0.00  0.00    +0.019 A 
ATOM     38  C   UNL     1     -41.567   0.351   5.999  0.00  0.00    +0.120 A 
ATOM     39  N   UNL     1     -42.470   1.303   6.462  0.00  0.00    -0.263 NA
ATOM     40  C   UNL     1     -42.337   2.670   6.178  0.00  0.00    +0.111 A 
ENDBRANCH   4   3
ENDBRANCH  10   9
BRANCH  12  13
ATOM     13  N   UNL     1     -32.797  -2.110   1.090  0.00  0.00    -0.281 N 
ATOM     14  C   UNL     1     -31.769  -1.746   0.235  0.00  0.00    +0.248 C 
ATOM     30  O   UNL     1     -31.879  -1.657  -0.979  0.00  0.00    -0.270 OA
ATOM     31  H   UNL     1     -32.525  -2.334   2.047  0.00  0.00    +0.155 HD
BRANCH  14  15
ATOM     15  C   UNL     1     -30.421  -1.452   0.810  0.00  0.00    +0.037 A 
ATOM     16  C   UNL     1     -30.235  -0.396   1.808  0.00  0.00    +0.013 A 
ATOM     17  C   UNL     1     -28.921  -0.122   2.334  0.00  0.00    +0.005 A 
ATOM     18  C   UNL     1     -27.783  -0.907   1.863  0.00  0.00    -0.033 A 
ATOM     28  C   UNL     1     -27.997  -1.952   0.876  0.00  0.00    +0.005 A 
ATOM     29  C   UNL     1     -29.283  -2.223   0.357  0.00  0.00    +0.013 A 
BRANCH  18  19
ATOM     19  C   UNL     1     -26.342  -0.669   2.353  0.00  0.00    +0.119 C 
BRANCH  19  20
ATOM     20  N   UNL     1     -25.457  -1.865   2.480  0.00  0.00    -0.302 NA
ATOM     21  C   UNL     1     -25.874  -2.768   3.644  0.00  0.00    +0.066 C 
ATOM     22  C   UNL     1     -24.952  -4.026   3.748  0.00  0.00    -0.064 C 
ATOM     23  N   UNL     1     -23.498  -3.577   3.906  0.00  0.00    +0.379 N 
ATOM     24  C   UNL     1     -22.634  -4.756   4.062  0.00  0.00    -0.096 C 
ATOM     25  H   UNL     1     -23.429  -2.980   4.845  0.00  0.00    -0.082 HD
ATOM     26  C   UNL     1     -23.075  -2.676   2.754  0.00  0.00    -0.064 C 
ATOM     27  C   UNL     1     -24.017  -1.445   2.641  0.00  0.00    +0.066 C 
ENDBRANCH  19  20
ENDBRANCH  18  19
ENDBRANCH  14  15
ENDBRANCH  12  13
TORSDOF 6
ENDMDL
MODEL 2
REMARK VINA RESULT:      -8.0     18.334     23.727
REMARK  Name = C:\Users\Docking\Desktop\test protocol\1iep_ligandH.pdb
REMARK  8 active torsions:
REMARK  status: ('A' for Active; 'I' for Inactive)
REMARK    1  A    between atoms: _5  and  _11
REMARK    2  A    between atoms: _19  and  _21
REMARK    3  A    between atoms: _22  and  _66
REMARK    4  A    between atoms: _27  and  _30
REMARK    5  A    between atoms: _32  and  _33
REMARK    6  A    between atoms: _38  and  _43
REMARK    7  A    between atoms: _43  and  _46
REMARK    8  A    between atoms: _53  and  _55
REMARK                            x       y       z     vdW  Elec       q    Type
REMARK                         _______ _______ _______ _____ _____    ______ ____
ROOT
ATOM     10  C   UNL     1     -16.760   0.766  -5.924  0.00  0.00    +0.038 A 
ATOM     11  C   UNL     1     -16.284   1.470  -7.059  0.00  0.00    +0.047 A 
ATOM     12  C   UNL     1     -17.173   1.814  -8.158  0.00  0.00    +0.035 A 
ATOM     32  C   UNL     1     -18.542   1.427  -8.067  0.00  0.00    +0.024 A 
ATOM     33  C   UNL     1     -19.042   0.709  -6.921  0.00  0.00    +0.007 A 
ATOM     34  C   UNL     1     -18.169   0.365  -5.835  0.00  0.00    -0.029 A 
ATOM     35  C   UNL     1     -18.759  -0.410  -4.634  0.00  0.00    +0.045 C 
ENDROOT
BRANCH  10   9
ATOM      4  C   UNL     1     -13.989  -2.312  -3.498  0.00  0.00    +0.077 A 
ATOM      5  C   UNL     1     -14.382  -3.413  -4.329  0.00  0.00    +0.048 A 
ATOM      6  C   UNL     1     -15.305  -3.147  -5.366  0.00  0.00    +0.116 A 
ATOM      7  N   UNL     1     -15.791  -1.870  -5.548  0.00  0.00    -0.223 NA
ATOM      8  C   UNL     1     -15.393  -0.831  -4.727  0.00  0.00    +0.220 A 
ATOM      9  N   UNL     1     -15.863   0.462  -4.897  0.00  0.00    -0.283 N 
ATOM     36  H   UNL     1     -15.550   1.199  -4.266  0.00  0.00    +0.155 HD
ATOM     37  N   UNL     1     -14.514  -1.060  -3.730  0.00  0.00    -0.214 NA
BRANCH   4   3
ATOM      1  C   UNL     1     -11.059  -3.519  -1.205  0.00  0.00    +0.020 A 
ATOM      2  C   UNL     1     -11.970  -3.445  -2.323  0.00  0.00    +0.013 A 
ATOM      3  C   UNL     1     -13.019  -2.434  -2.364  0.00  0.00    +0.019 A 
ATOM     38  C   UNL     1     -13.120  -1.505  -1.248  0.00  0.00    +0.120 A 
ATOM     39  N   UNL     1     -12.229  -1.602  -0.183  0.00  0.00    -0.263 NA
ATOM     40  C   UNL     1     -11.216  -2.571  -0.133  0.00  0.00    +0.111 A 
ENDBRANCH   4   3
ENDBRANCH  10   9
BRANCH  12  13
ATOM     13  N   UNL     1     -16.745   2.521  -9.340  0.00  0.00    -0.281 N 
ATOM     14  C   UNL     1     -16.881   3.871  -9.621  0.00  0.00    +0.248 C 
ATOM     30  O   UNL     1     -17.586   4.641  -8.986  0.00  0.00    -0.270 OA
ATOM     31  H   UNL     1     -16.286   1.958 -10.056  0.00  0.00    +0.155 HD
BRANCH  14  15
ATOM     15  C   UNL     1     -16.137   4.445 -10.783  0.00  0.00    +0.037 A 
ATOM     16  C   UNL     1     -16.826   5.217 -11.820  0.00  0.00    +0.013 A 
ATOM     17  C   UNL     1     -16.087   5.745 -12.939  0.00  0.00    +0.005 A 
ATOM     18  C   UNL     1     -14.649   5.504 -13.026  0.00  0.00    -0.033 A 
ATOM     28  C   UNL     1     -13.989   4.739 -11.981  0.00  0.00    +0.005 A 
ATOM     29  C   UNL     1     -14.710   4.219 -10.883  0.00  0.00    +0.013 A 
BRANCH  18  19
ATOM     19  C   UNL     1     -13.785   6.011 -14.196  0.00  0.00    +0.119 C 
BRANCH  19  20
ATOM     20  N   UNL     1     -13.079   4.985 -15.020  0.00  0.00    -0.302 NA
ATOM     21  C   UNL     1     -11.559   5.051 -14.842  0.00  0.00    +0.066 C 
ATOM     22  C   UNL     1     -10.838   3.957 -15.694  0.00  0.00    -0.064 C 
ATOM     23  N   UNL     1     -11.219   4.127 -17.166  0.00  0.00    +0.379 N 
ATOM     24  C   UNL     1     -10.497   3.136 -17.977  0.00  0.00    -0.096 C 
ATOM     25  H   UNL     1     -10.880   5.139 -17.487  0.00  0.00    -0.082 HD
ATOM     26  C   UNL     1     -12.728   4.065 -17.351  0.00  0.00    -0.064 C 
ATOM     27  C   UNL     1     -13.437   5.138 -16.478  0.00  0.00    +0.066 C 
ENDBRANCH  19  20
ENDBRANCH  18  19
ENDBRANCH  14  15
ENDBRANCH  12  13
TORSDOF 6
ENDMDL
MODEL 3
REMARK VINA RESULT:      -7.9      6.067     11.591
REMARK  Name = C:\Users\Docking\Desktop\test protocol\1iep_ligandH.pdb
REMARK  8 active torsions:
REMARK  status: ('A' for Active; 'I' for Inactive)
REMARK    1  A    between atoms: _5  and  _11
REMARK    2  A    between atoms: _19  and  _21
REMARK    3  A    between atoms: _22  and  _66
REMARK    4  A    between atoms: _27  and  _30
REMARK    5  A    between atoms: _32  and  _33
REMARK    6  A    between atoms: _38  and  _43
REMARK    7  A    between atoms: _43  and  _46
REMARK    8  A    between atoms: _53  and  _55
REMARK                            x       y       z     vdW  Elec       q    Type
REMARK                         _______ _______ _______ _____ _____    ______ ____
ROOT
ATOM     10  C   UNL     1     -25.049  -3.152   2.555  0.00  0.00    +0.038 A 
ATOM     11  C   UNL     1     -23.919  -2.710   1.820  0.00  0.00    +0.047 A 
ATOM     12  C   UNL     1     -22.632  -2.510   2.467  0.00  0.00    +0.035 A 
ATOM     32  C   UNL     1     -22.530  -2.772   3.865  0.00  0.00    +0.024 A 
ATOM     33  C   UNL     1     -23.669  -3.220   4.627  0.00  0.00    +0.007 A 
ATOM     34  C   UNL     1     -24.942  -3.417   3.995  0.00  0.00    -0.029 A 
ATOM     35  C   UNL     1     -26.130  -3.893   4.863  0.00  0.00    +0.045 C 
ENDROOT
BRANCH  10   9
ATOM      4  C   UNL     1     -29.405  -1.644   1.219  0.00  0.00    +0.077 A 
ATOM      5  C   UNL     1     -29.266  -0.413   1.943  0.00  0.00    +0.048 A 
ATOM      6  C   UNL     1     -28.061  -0.210   2.652  0.00  0.00    +0.116 A 
ATOM      7  N   UNL     1     -27.075  -1.173   2.631  0.00  0.00    -0.223 NA
ATOM      8  C   UNL     1     -27.242  -2.349   1.924  0.00  0.00    +0.220 A 
ATOM      9  N   UNL     1     -26.261  -3.328   1.883  0.00  0.00    -0.283 N 
ATOM     36  H   UNL     1     -26.425  -4.185   1.356  0.00  0.00    +0.155 HD
ATOM     37  N   UNL     1     -28.384  -2.568   1.240  0.00  0.00    -0.214 NA
BRANCH   4   3
ATOM      1  C   UNL     1     -31.748  -3.013  -1.598  0.00  0.00    +0.020 A 
ATOM      2  C   UNL     1     -30.546  -2.689  -0.866  0.00  0.00    +0.013 A 
ATOM      3  C   UNL     1     -30.618  -2.003   0.418  0.00  0.00    +0.019 A 
ATOM     38  C   UNL     1     -31.933  -1.658   0.937  0.00  0.00    +0.120 A 
ATOM     39  N   UNL     1     -33.074  -1.982   0.209  0.00  0.00    -0.263 NA
ATOM     40  C   UNL     1     -33.016  -2.640  -1.029  0.00  0.00    +0.111 A 
ENDBRANCH   4   3
ENDBRANCH  10   9
BRANCH  12  13
ATOM     13  N   UNL     1     -21.452  -2.055   1.775  0.00  0.00    -0.281 N 
ATOM     14  C   UNL     1     -20.432  -2.822   1.236  0.00  0.00    +0.248 C 
ATOM     30  O   UNL     1     -20.273  -4.013   1.456  0.00  0.00    -0.270 OA
ATOM     31  H   UNL     1     -21.357  -1.045   1.669  0.00  0.00    +0.155 HD
BRANCH  14  15
ATOM     15  C   UNL     1     -19.437  -2.168   0.332  0.00  0.00    +0.037 A 
ATOM     16  C   UNL     1     -18.701  -2.939  -0.672  0.00  0.00    +0.013 A 
ATOM     17  C   UNL     1     -17.734  -2.287  -1.519  0.00  0.00    +0.005 A 
ATOM     18  C   UNL     1     -17.499  -0.853  -1.366  0.00  0.00    -0.033 A 
ATOM     28  C   UNL     1     -18.247  -0.111  -0.364  0.00  0.00    +0.005 A 
ATOM     29  C   UNL     1     -19.195  -0.747   0.468  0.00  0.00    +0.013 A 
BRANCH  18  19
ATOM     19  C   UNL     1     -16.471  -0.078  -2.212  0.00  0.00    +0.119 C 
BRANCH  19  20
ATOM     20  N   UNL     1     -16.874   0.302  -3.598  0.00  0.00    -0.302 NA
ATOM     21  C   UNL     1     -18.339   0.744  -3.670  0.00  0.00    +0.066 C 
ATOM     22  C   UNL     1     -18.737   1.159  -5.124  0.00  0.00    -0.064 C 
ATOM     23  N   UNL     1     -18.477  -0.010  -6.075  0.00  0.00    +0.379 N 
ATOM     24  C   UNL     1     -18.905   0.357  -7.432  0.00  0.00    -0.096 C 
ATOM     25  H   UNL     1     -19.110  -0.865  -5.740  0.00  0.00    -0.082 HD
ATOM     26  C   UNL     1     -17.024  -0.458  -6.008  0.00  0.00    -0.064 C 
ATOM     27  C   UNL     1     -16.630  -0.840  -4.554  0.00  0.00    +0.066 C 
ENDBRANCH  19  20
ENDBRANCH  18  19
ENDBRANCH  14  15
ENDBRANCH  12  13
TORSDOF 6
ENDMDL
MODEL 4
REMARK VINA RESULT:      -7.7      9.256     18.574
REMARK  Name = C:\Users\Docking\Desktop\test protocol\1iep_ligandH.pdb
REMARK  8 active torsions:
REMARK  status: ('A' for Active; 'I' for Inactive)
REMARK    1  A    between atoms: _5  and  _11
REMARK    2  A    between atoms: _19  and  _21
REMARK    3  A    between atoms: _22  and  _66
REMARK    4  A    between atoms: _27  and  _30
REMARK    5  A    between atoms: _32  and  _33
REMARK    6  A    between atoms: _38  and  _43
REMARK    7  A    between atoms: _43  and  _46
REMARK    8  A    between atoms: _53  and  _55
REMARK                            x       y       z     vdW  Elec       q    Type
REMARK                         _______ _______ _______ _____ _____    ______ ____
ROOT
ATOM     10  C   UNL     1     -16.048  -1.224  -3.604  0.00  0.00    +0.038 A 
ATOM     11  C   UNL     1     -17.069  -1.194  -2.621  0.00  0.00    +0.047 A 
ATOM     12  C   UNL     1     -17.266  -2.307  -1.705  0.00  0.00    +0.035 A 
ATOM     32  C   UNL     1     -16.401  -3.435  -1.817  0.00  0.00    +0.024 A 
ATOM     33  C   UNL     1     -15.359  -3.483  -2.812  0.00  0.00    +0.007 A 
ATOM     34  C   UNL     1     -15.162  -2.389  -3.720  0.00  0.00    -0.029 A 
ATOM     35  C   UNL     1     -14.032  -2.497  -4.770  0.00  0.00    +0.045 C 
ENDROOT
BRANCH  10   9
ATOM      4  C   UNL     1     -17.522   1.519  -7.257  0.00  0.00    +0.077 A 
ATOM      5  C   UNL     1     -18.661   0.681  -7.503  0.00  0.00    +0.048 A 
ATOM      6  C   UNL     1     -18.827  -0.449  -6.672  0.00  0.00    +0.116 A 
ATOM      7  N   UNL     1     -17.916  -0.713  -5.672  0.00  0.00    -0.223 NA
ATOM      8  C   UNL     1     -16.828   0.114  -5.462  0.00  0.00    +0.220 A 
ATOM      9  N   UNL     1     -15.904  -0.128  -4.457  0.00  0.00    -0.283 N 
ATOM     36  H   UNL     1     -15.111   0.502  -4.340  0.00  0.00    +0.155 HD
ATOM     37  N   UNL     1     -16.646   1.199  -6.243  0.00  0.00    -0.214 NA
BRANCH   4   3
ATOM      1  C   UNL     1     -16.400   3.929 -10.125  0.00  0.00    +0.020 A 
ATOM      2  C   UNL     1     -16.682   2.709  -9.405  0.00  0.00    +0.013 A 
ATOM      3  C   UNL     1     -17.212   2.751  -8.048  0.00  0.00    +0.019 A 
ATOM     38  C   UNL     1     -17.448   4.054  -7.444  0.00  0.00    +0.120 A 
ATOM     39  N   UNL     1     -17.165   5.212  -8.161  0.00  0.00    -0.263 NA
ATOM     40  C   UNL     1     -16.653   5.184  -9.467  0.00  0.00    +0.111 A 
ENDBRANCH   4   3
ENDBRANCH  10   9
BRANCH  12  13
ATOM     13  N   UNL     1     -18.291  -2.336  -0.691  0.00  0.00    -0.281 N 
ATOM     14  C   UNL     1     -18.857  -1.264  -0.022  0.00  0.00    +0.248 C 
ATOM     30  O   UNL     1     -18.414  -0.125  -0.041  0.00  0.00    -0.270 OA
ATOM     31  H   UNL     1     -18.642  -3.259  -0.437  0.00  0.00    +0.155 HD
BRANCH  14  15
ATOM     15  C   UNL     1     -20.085  -1.492   0.799  0.00  0.00    +0.037 A 
ATOM     16  C   UNL     1     -20.909  -0.372   1.262  0.00  0.00    +0.013 A 
ATOM     17  C   UNL     1     -22.079  -0.619   2.066  0.00  0.00    +0.005 A 
ATOM     18  C   UNL     1     -22.433  -1.993   2.412  0.00  0.00    -0.033 A 
ATOM     28  C   UNL     1     -21.602  -3.086   1.935  0.00  0.00    +0.005 A 
ATOM     29  C   UNL     1     -20.453  -2.848   1.147  0.00  0.00    +0.013 A 
BRANCH  18  19
ATOM     19  C   UNL     1     -23.652  -2.349   3.284  0.00  0.00    +0.119 C 
BRANCH  19  20
ATOM     20  N   UNL     1     -24.990  -1.883   2.811  0.00  0.00    -0.302 NA
ATOM     21  C   UNL     1     -26.136  -2.603   3.528  0.00  0.00    +0.066 C 
ATOM     22  C   UNL     1     -27.528  -2.087   3.038  0.00  0.00    -0.064 C 
ATOM     23  N   UNL     1     -27.634  -2.275   1.524  0.00  0.00    +0.379 N 
ATOM     24  C   UNL     1     -28.963  -1.845   1.068  0.00  0.00    -0.096 C 
ATOM     25  H   UNL     1     -27.539  -3.366   1.311  0.00  0.00    -0.082 HD
ATOM     26  C   UNL     1     -26.497  -1.565   0.803  0.00  0.00    -0.064 C 
ATOM     27  C   UNL     1     -25.118  -2.064   1.319  0.00  0.00    +0.066 C 
ENDBRANCH  19  20
ENDBRANCH  18  19
ENDBRANCH  14  15
ENDBRANCH  12  13
TORSDOF 6
ENDMDL
MODEL 5
REMARK VINA RESULT:      -7.7      6.566     10.947
REMARK  Name = C:\Users\Docking\Desktop\test protocol\1iep_ligandH.pdb
REMARK  8 active torsions:
REMARK  status: ('A' for Active; 'I' for Inactive)
REMARK    1  A    between atoms: _5  and  _11
REMARK    2  A    between atoms: _19  and  _21
REMARK    3  A    between atoms: _22  and  _66
REMARK    4  A    between atoms: _27  and  _30
REMARK    5  A    between atoms: _32  and  _33
REMARK    6  A    between atoms: _38  and  _43
REMARK    7  A    between atoms: _43  and  _46
REMARK    8  A    between atoms: _53  and  _55
REMARK                            x       y       z     vdW  Elec       q    Type
REMARK                         _______ _______ _______ _____ _____    ______ ____
ROOT
ATOM     10  C   UNL     1     -37.110  -5.020  -5.591  0.00  0.00    +0.038 A 
ATOM     11  C   UNL     1     -36.997  -4.293  -4.378  0.00  0.00    +0.047 A 
ATOM     12  C   UNL     1     -36.303  -4.852  -3.228  0.00  0.00    +0.035 A 
ATOM     32  C   UNL     1     -35.734  -6.153  -3.349  0.00  0.00    +0.024 A 
ATOM     33  C   UNL     1     -35.841  -6.906  -4.574  0.00  0.00    +0.007 A 
ATOM     34  C   UNL     1     -36.526  -6.361  -5.711  0.00  0.00    -0.029 A 
ATOM     35  C   UNL     1     -36.615  -7.216  -6.997  0.00  0.00    +0.045 C 
ENDROOT
BRANCH  10   9
ATOM      4  C   UNL     1     -41.122  -4.043  -8.039  0.00  0.00    +0.077 A 
ATOM      5  C   UNL     1     -41.935  -4.783  -7.117  0.00  0.00    +0.048 A 
ATOM      6  C   UNL     1     -41.281  -5.406  -6.030  0.00  0.00    +0.116 A 
ATOM      7  N   UNL     1     -39.915  -5.290  -5.886  0.00  0.00    -0.223 NA
ATOM      8  C   UNL     1     -39.160  -4.571  -6.794  0.00  0.00    +0.220 A 
ATOM      9  N   UNL     1     -37.787  -4.435  -6.664  0.00  0.00    -0.283 N 
ATOM     36  H   UNL     1     -37.265  -3.902  -7.359  0.00  0.00    +0.155 HD
ATOM     37  N   UNL     1     -39.761  -3.968  -7.841  0.00  0.00    -0.214 NA
BRANCH   4   3
ATOM      1  C   UNL     1     -41.987  -1.264 -10.652  0.00  0.00    +0.020 A 
ATOM      2  C   UNL     1     -41.438  -1.908  -9.480  0.00  0.00    +0.013 A 
ATOM      3  C   UNL     1     -41.666  -3.326  -9.235  0.00  0.00    +0.019 A 
ATOM     38  C   UNL     1     -42.459  -4.071 -10.202  0.00  0.00    +0.120 A 
ATOM     39  N   UNL     1     -42.975  -3.423 -11.321  0.00  0.00    -0.263 NA
ATOM     40  C   UNL     1     -42.764  -2.058 -11.566  0.00  0.00    +0.111 A 
ENDBRANCH   4   3
ENDBRANCH  10   9
BRANCH  12  13
ATOM     13  N   UNL     1     -36.164  -4.164  -1.969  0.00  0.00    -0.281 N 
ATOM     14  C   UNL     1     -35.000  -3.910  -1.262  0.00  0.00    +0.248 C 
ATOM     30  O   UNL     1     -33.918  -4.425  -1.503  0.00  0.00    -0.270 OA
ATOM     31  H   UNL     1     -37.028  -3.824  -1.547  0.00  0.00    +0.155 HD
BRANCH  14  15
ATOM     15  C   UNL     1     -35.048  -2.956  -0.112  0.00  0.00    +0.037 A 
ATOM     16  C   UNL     1     -36.309  -2.349   0.320  0.00  0.00    +0.013 A 
ATOM     17  C   UNL     1     -36.324  -1.419   1.422  0.00  0.00    +0.005 A 
ATOM     18  C   UNL     1     -35.072  -1.092   2.100  0.00  0.00    -0.033 A 
ATOM     28  C   UNL     1     -33.836  -1.713   1.654  0.00  0.00    +0.005 A 
ATOM     29  C   UNL     1     -33.817  -2.624   0.574  0.00  0.00    +0.013 A 
BRANCH  18  19
ATOM     19  C   UNL     1     -34.991  -0.094   3.270  0.00  0.00    +0.119 C 
BRANCH  19  20
ATOM     20  N   UNL     1     -35.851  -0.366   4.461  0.00  0.00    -0.302 NA
ATOM     21  C   UNL     1     -35.837   0.797   5.457  0.00  0.00    +0.066 C 
ATOM     22  C   UNL     1     -36.759   0.506   6.685  0.00  0.00    -0.064 C 
ATOM     23  N   UNL     1     -36.309  -0.791   7.361  0.00  0.00    +0.379 N 
ATOM     24  C   UNL     1     -37.137  -1.037   8.550  0.00  0.00    -0.096 C 
ATOM     25  H   UNL     1     -35.258  -0.646   7.704  0.00  0.00    -0.082 HD
ATOM     26  C   UNL     1     -36.317  -1.952   6.377  0.00  0.00    -0.064 C 
ATOM     27  C   UNL     1     -35.421  -1.640   5.146  0.00  0.00    +0.066 C 
ENDBRANCH  19  20
ENDBRANCH  18  19
ENDBRANCH  14  15
ENDBRANCH  12  13
TORSDOF 6
ENDMDL
