MODEL 1
REMARK VINA RESULT:      -8.3      0.000      0.000
REMARK  Name = C:\Users\Docking\Desktop\test protocol\1iep_ligandH.pdb
REMARK  8 active torsions:
REMARK  status: ('A' for Active; 'I' for Inactive)
REMARK    1  A    between atoms: _5  and  _11
REMARK    2  A    between atoms: _19  and  _21
REMARK    3  A    between atoms: _22  and  _66
REMARK    4  A    between atoms: _27  and  _30
REMARK    5  A    between atoms: _32  and  _33
REMARK    6  A    between atoms: _38  and  _43
REMARK    7  A    between atoms: _43  and  _46
REMARK    8  A    between atoms: _53  and  _55
REMARK                            x       y       z     vdW  Elec       q    Type
REMARK                         _______ _______ _______ _____ _____    ______ ____
ROOT
ATOM     10  C   UNL     1      -7.899  14.790  22.374  0.00  0.00    +0.038 A 
ATOM     11  C   UNL     1      -7.026  14.745  21.257  0.00  0.00    +0.047 A 
ATOM     12  C   UNL     1      -7.210  15.633  20.121  0.00  0.00    +0.035 A 
ATOM     32  C   UNL     1      -8.294  16.558  20.155  0.00  0.00    +0.024 A 
ATOM     33  C   UNL     1      -9.192  16.618  21.281  0.00  0.00    +0.007 A 
ATOM     34  C   UNL     1      -9.016  15.742  22.405  0.00  0.00    -0.029 A 
ATOM     35  C   UNL     1     -10.014  15.845  23.582  0.00  0.00    +0.045 C 
ENDROOT
BRANCH  10   9
ATOM      4  C   UNL     1      -8.961  10.860  24.916  0.00  0.00    +0.077 A 
ATOM      5  C   UNL     1     -10.073  10.539  24.067  0.00  0.00    +0.048 A 
ATOM      6  C   UNL     1     -10.342  11.416  22.992  0.00  0.00    +0.116 A 
ATOM      7  N   UNL     1      -9.551  12.526  22.789  0.00  0.00    -0.223 NA
ATOM      8  C   UNL     1      -8.488  12.807  23.628  0.00  0.00    +0.220 A 
ATOM      9  N   UNL     1      -7.675  13.914  23.438  0.00  0.00    -0.283 N 
ATOM     36  H   UNL     1      -6.905  14.091  24.083  0.00  0.00    +0.155 HD
ATOM     37  N   UNL     1      -8.212  11.987  24.663  0.00  0.00    -0.214 NA
BRANCH   4   3
ATOM      1  C   UNL     1      -8.471   7.863  27.382  0.00  0.00    +0.020 A 
ATOM      2  C   UNL     1      -8.895   8.620  26.226  0.00  0.00    +0.013 A 
ATOM      3  C   UNL     1      -8.549  10.030  26.091  0.00  0.00    +0.019 A 
ATOM     38  C   UNL     1      -7.766  10.648  27.151  0.00  0.00    +0.120 A 
ATOM     39  N   UNL     1      -7.373   9.894  28.252  0.00  0.00    -0.263 NA
ATOM     40  C   UNL     1      -7.701   8.538  28.394  0.00  0.00    +0.111 A 
ENDBRANCH   4   3
ENDBRANCH  10   9
BRANCH  12  13
ATOM     13  N   UNL     1      -6.360  15.627  18.956  0.00  0.00    -0.281 N 
ATOM     14  C   UNL     1      -5.072  16.122  18.839  0.00  0.00    +0.248 C 
ATOM     30  O   UNL     1      -4.530  16.841  19.666  0.00  0.00    -0.270 OA
ATOM     31  H   UNL     1      -6.756  15.206  18.115  0.00  0.00    +0.155 HD
BRANCH  14  15
ATOM     15  C   UNL     1      -4.274  15.780  17.622  0.00  0.00    +0.037 A 
ATOM     16  C   UNL     1      -4.554  16.409  16.329  0.00  0.00    +0.013 A 
ATOM     17  C   UNL     1      -3.780  16.049  15.167  0.00  0.00    +0.005 A 
ATOM     18  C   UNL     1      -2.718  15.054  15.294  0.00  0.00    -0.033 A 
ATOM     28  C   UNL     1      -2.459  14.449  16.590  0.00  0.00    +0.005 A 
ATOM     29  C   UNL     1      -3.215  14.799  17.731  0.00  0.00    +0.013 A 
BRANCH  18  19
ATOM     19  C   UNL     1      -1.857  14.594  14.103  0.00  0.00    +0.119 C 
BRANCH  19  20
ATOM     20  N   UNL     1      -2.312  13.381  13.359  0.00  0.00    -0.302 NA
ATOM     21  C   UNL     1      -1.532  12.129  13.771  0.00  0.00    +0.066 C 
ATOM     22  C   UNL     1      -2.036  10.866  12.999  0.00  0.00    -0.064 C 
ATOM     23  N   UNL     1      -1.914  11.109  11.494  0.00  0.00    +0.379 N 
ATOM     24  C   UNL     1      -2.333   9.902  10.766  0.00  0.00    -0.096 C 
ATOM     25  H   UNL     1      -0.837  11.285  11.266  0.00  0.00    -0.082 HD
ATOM     26  C   UNL     1      -2.684  12.354  11.076  0.00  0.00    -0.064 C 
ATOM     27  C   UNL     1      -2.196  13.598  11.870  0.00  0.00    +0.066 C 
ENDBRANCH  19  20
ENDBRANCH  18  19
ENDBRANCH  14  15
ENDBRANCH  12  13
TORSDOF 6
ENDMDL
MODEL 2
REMARK VINA RESULT:      -8.0     22.935     27.068
REMARK  Name = C:\Users\Docking\Desktop\test protocol\1iep_ligandH.pdb
REMARK  8 active torsions:
REMARK  status: ('A' for Active; 'I' for Inactive)
REMARK    1  A    between atoms: _5  and  _11
REMARK    2  A    between atoms: _19  and  _21
REMARK    3  A    between atoms: _22  and  _66
REMARK    4  A    between atoms: _27  and  _30
REMARK    5  A    between atoms: _32  and  _33
REMARK    6  A    between atoms: _38  and  _43
REMARK    7  A    between atoms: _43  and  _46
REMARK    8  A    between atoms: _53  and  _55
REMARK                            x       y       z     vdW  Elec       q    Type
REMARK                         _______ _______ _______ _____ _____    ______ ____
ROOT
ATOM     10  C   UNL     1     -22.959  29.520  22.588  0.00  0.00    +0.038 A 
ATOM     11  C   UNL     1     -22.277  29.820  23.794  0.00  0.00    +0.047 A 
ATOM     12  C   UNL     1     -22.413  28.971  24.968  0.00  0.00    +0.035 A 
ATOM     32  C   UNL     1     -23.251  27.822  24.876  0.00  0.00    +0.024 A 
ATOM     33  C   UNL     1     -23.953  27.502  23.657  0.00  0.00    +0.007 A 
ATOM     34  C   UNL     1     -23.824  28.337  22.498  0.00  0.00    -0.029 A 
ATOM     35  C   UNL     1     -24.604  27.949  21.220  0.00  0.00    +0.045 C 
ENDROOT
BRANCH  10   9
ATOM      4  C   UNL     1     -24.040  33.477  20.097  0.00  0.00    +0.077 A 
ATOM      5  C   UNL     1     -25.042  33.872  21.045  0.00  0.00    +0.048 A 
ATOM      6  C   UNL     1     -25.253  33.025  22.156  0.00  0.00    +0.116 A 
ATOM      7  N   UNL     1     -24.512  31.872  22.298  0.00  0.00    -0.223 NA
ATOM      8  C   UNL     1     -23.554  31.520  21.365  0.00  0.00    +0.220 A 
ATOM      9  N   UNL     1     -22.791  30.369  21.492  0.00  0.00    -0.283 N 
ATOM     36  H   UNL     1     -22.100  30.141  20.778  0.00  0.00    +0.155 HD
ATOM     37  N   UNL     1     -23.335  32.311  20.294  0.00  0.00    -0.214 NA
BRANCH   4   3
ATOM      1  C   UNL     1     -24.323  35.666  16.867  0.00  0.00    +0.020 A 
ATOM      2  C   UNL     1     -24.706  34.912  18.039  0.00  0.00    +0.013 A 
ATOM      3  C   UNL     1     -23.699  34.269  18.873  0.00  0.00    +0.019 A 
ATOM     38  C   UNL     1     -22.302  34.409  18.491  0.00  0.00    +0.120 A 
ATOM     39  N   UNL     1     -21.963  35.140  17.356  0.00  0.00    -0.263 NA
ATOM     40  C   UNL     1     -22.924  35.762  16.545  0.00  0.00    +0.111 A 
ENDBRANCH   4   3
ENDBRANCH  10   9
BRANCH  12  13
ATOM     13  N   UNL     1     -21.752  29.230  26.222  0.00  0.00    -0.281 N 
ATOM     14  C   UNL     1     -20.933  28.378  26.946  0.00  0.00    +0.248 C 
ATOM     30  O   UNL     1     -20.817  27.181  26.728  0.00  0.00    -0.270 OA
ATOM     31  H   UNL     1     -21.905  30.154  26.626  0.00  0.00    +0.155 HD
BRANCH  14  15
ATOM     15  C   UNL     1     -20.140  28.933  28.085  0.00  0.00    +0.037 A 
ATOM     16  C   UNL     1     -20.263  30.338  28.483  0.00  0.00    +0.013 A 
ATOM     17  C   UNL     1     -19.473  30.851  29.574  0.00  0.00    +0.005 A 
ATOM     18  C   UNL     1     -18.555  29.958  30.276  0.00  0.00    -0.033 A 
ATOM     28  C   UNL     1     -18.457  28.567  29.864  0.00  0.00    +0.005 A 
ATOM     29  C   UNL     1     -19.229  28.061  28.794  0.00  0.00    +0.013 A 
BRANCH  18  19
ATOM     19  C   UNL     1     -17.659  30.425  31.438  0.00  0.00    +0.119 C 
BRANCH  19  20
ATOM     20  N   UNL     1     -18.170  30.212  32.825  0.00  0.00    -0.302 NA
ATOM     21  C   UNL     1     -19.358  31.124  33.146  0.00  0.00    +0.066 C 
ATOM     22  C   UNL     1     -19.895  30.872  34.592  0.00  0.00    -0.064 C 
ATOM     23  N   UNL     1     -18.762  31.084  35.598  0.00  0.00    +0.379 N 
ATOM     24  C   UNL     1     -19.278  30.905  36.963  0.00  0.00    -0.096 C 
ATOM     25  H   UNL     1     -18.418  32.141  35.502  0.00  0.00    -0.082 HD
ATOM     26  C   UNL     1     -17.576  30.183  35.285  0.00  0.00    -0.064 C 
ATOM     27  C   UNL     1     -17.069  30.420  33.835  0.00  0.00    +0.066 C 
ENDBRANCH  19  20
ENDBRANCH  18  19
ENDBRANCH  14  15
ENDBRANCH  12  13
TORSDOF 6
ENDMDL
MODEL 3
REMARK VINA RESULT:      -8.0      9.666     14.538
REMARK  Name = C:\Users\Docking\Desktop\test protocol\1iep_ligandH.pdb
REMARK  8 active torsions:
REMARK  status: ('A' for Active; 'I' for Inactive)
REMARK    1  A    between atoms: _5  and  _11
REMARK    2  A    between atoms: _19  and  _21
REMARK    3  A    between atoms: _22  and  _66
REMARK    4  A    between atoms: _27  and  _30
REMARK    5  A    between atoms: _32  and  _33
REMARK    6  A    between atoms: _38  and  _43
REMARK    7  A    between atoms: _43  and  _46
REMARK    8  A    between atoms: _53  and  _55
REMARK                            x       y       z     vdW  Elec       q    Type
REMARK                         _______ _______ _______ _____ _____    ______ ____
ROOT
ATOM     10  C   UNL     1     -15.182  19.910  30.771  0.00  0.00    +0.038 A 
ATOM     11  C   UNL     1     -14.213  19.185  30.032  0.00  0.00    +0.047 A 
ATOM     12  C   UNL     1     -13.398  18.158  30.664  0.00  0.00    +0.035 A 
ATOM     32  C   UNL     1     -13.600  17.894  32.050  0.00  0.00    +0.024 A 
ATOM     33  C   UNL     1     -14.580  18.622  32.816  0.00  0.00    +0.007 A 
ATOM     34  C   UNL     1     -15.385  19.638  32.199  0.00  0.00    -0.029 A 
ATOM     35  C   UNL     1     -16.416  20.392  33.071  0.00  0.00    +0.045 C 
ENDROOT
BRANCH  10   9
ATOM      4  C   UNL     1     -16.039  24.461  29.508  0.00  0.00    +0.077 A 
ATOM      5  C   UNL     1     -14.903  24.940  30.241  0.00  0.00    +0.048 A 
ATOM      6  C   UNL     1     -14.128  23.984  30.936  0.00  0.00    +0.116 A 
ATOM      7  N   UNL     1     -14.473  22.651  30.893  0.00  0.00    -0.223 NA
ATOM      8  C   UNL     1     -15.576  22.222  30.177  0.00  0.00    +0.220 A 
ATOM      9  N   UNL     1     -15.936  20.885  30.114  0.00  0.00    -0.283 N 
ATOM     36  H   UNL     1     -16.761  20.610  29.581  0.00  0.00    +0.155 HD
ATOM     37  N   UNL     1     -16.333  23.116  29.507  0.00  0.00    -0.214 NA
BRANCH   4   3
ATOM      1  C   UNL     1     -18.338  25.886  26.682  0.00  0.00    +0.020 A 
ATOM      2  C   UNL     1     -17.457  24.994  27.400  0.00  0.00    +0.013 A 
ATOM      3  C   UNL     1     -16.953  25.348  28.721  0.00  0.00    +0.019 A 
ATOM     38  C   UNL     1     -17.363  26.622  29.292  0.00  0.00    +0.120 A 
ATOM     39  N   UNL     1     -18.211  27.461  28.577  0.00  0.00    -0.263 NA
ATOM     40  C   UNL     1     -18.701  27.132  27.304  0.00  0.00    +0.111 A 
ENDBRANCH   4   3
ENDBRANCH  10   9
BRANCH  12  13
ATOM     13  N   UNL     1     -12.393  17.395  29.967  0.00  0.00    -0.281 N 
ATOM     14  C   UNL     1     -12.506  16.120  29.437  0.00  0.00    +0.248 C 
ATOM     30  O   UNL     1     -13.429  15.354  29.672  0.00  0.00    -0.270 OA
ATOM     31  H   UNL     1     -11.488  17.851  29.849  0.00  0.00    +0.155 HD
BRANCH  14  15
ATOM     15  C   UNL     1     -11.432  15.618  28.527  0.00  0.00    +0.037 A 
ATOM     16  C   UNL     1     -10.237  16.419  28.248  0.00  0.00    +0.013 A 
ATOM     17  C   UNL     1      -9.224  15.918  27.353  0.00  0.00    +0.005 A 
ATOM     18  C   UNL     1      -9.402  14.607  26.732  0.00  0.00    -0.033 A 
ATOM     28  C   UNL     1     -10.595  13.832  27.031  0.00  0.00    +0.005 A 
ATOM     29  C   UNL     1     -11.590  14.320  27.907  0.00  0.00    +0.013 A 
BRANCH  18  19
ATOM     19  C   UNL     1      -8.383  14.003  25.748  0.00  0.00    +0.119 C 
BRANCH  19  20
ATOM     20  N   UNL     1      -8.231  14.674  24.423  0.00  0.00    -0.302 NA
ATOM     21  C   UNL     1      -9.504  15.416  24.005  0.00  0.00    +0.066 C 
ATOM     22  C   UNL     1      -9.319  16.132  22.627  0.00  0.00    -0.064 C 
ATOM     23  N   UNL     1      -8.922  15.101  21.570  0.00  0.00    +0.379 N 
ATOM     24  C   UNL     1      -8.804  15.760  20.261  0.00  0.00    -0.096 C 
ATOM     25  H   UNL     1      -9.746  14.354  21.499  0.00  0.00    -0.082 HD
ATOM     26  C   UNL     1      -7.658  14.356  21.978  0.00  0.00    -0.064 C 
ATOM     27  C   UNL     1      -7.842  13.674  23.362  0.00  0.00    +0.066 C 
ENDBRANCH  19  20
ENDBRANCH  18  19
ENDBRANCH  14  15
ENDBRANCH  12  13
TORSDOF 6
ENDMDL
MODEL 4
REMARK VINA RESULT:      -7.6     22.437     28.283
REMARK  Name = C:\Users\Docking\Desktop\test protocol\1iep_ligandH.pdb
REMARK  8 active torsions:
REMARK  status: ('A' for Active; 'I' for Inactive)
REMARK    1  A    between atoms: _5  and  _11
REMARK    2  A    between atoms: _19  and  _21
REMARK    3  A    between atoms: _22  and  _66
REMARK    4  A    between atoms: _27  and  _30
REMARK    5  A    between atoms: _32  and  _33
REMARK    6  A    between atoms: _38  and  _43
REMARK    7  A    between atoms: _43  and  _46
REMARK    8  A    between atoms: _53  and  _55
REMARK                            x       y       z     vdW  Elec       q    Type
REMARK                         _______ _______ _______ _____ _____    ______ ____
ROOT
ATOM     10  C   UNL     1     -20.306  29.391  28.428  0.00  0.00    +0.038 A 
ATOM     11  C   UNL     1     -20.734  30.664  28.884  0.00  0.00    +0.047 A 
ATOM     12  C   UNL     1     -19.936  31.434  29.825  0.00  0.00    +0.035 A 
ATOM     32  C   UNL     1     -18.705  30.878  30.280  0.00  0.00    +0.024 A 
ATOM     33  C   UNL     1     -18.255  29.585  29.829  0.00  0.00    +0.007 A 
ATOM     34  C   UNL     1     -19.040  28.819  28.902  0.00  0.00    -0.029 A 
ATOM     35  C   UNL     1     -18.512  27.436  28.457  0.00  0.00    +0.045 C 
ENDROOT
BRANCH  10   9
ATOM      4  C   UNL     1     -22.545  28.977  24.203  0.00  0.00    +0.077 A 
ATOM      5  C   UNL     1     -22.094  30.268  23.771  0.00  0.00    +0.048 A 
ATOM      6  C   UNL     1     -21.294  31.010  24.668  0.00  0.00    +0.116 A 
ATOM      7  N   UNL     1     -20.974  30.489  25.903  0.00  0.00    -0.223 NA
ATOM      8  C   UNL     1     -21.427  29.242  26.290  0.00  0.00    +0.220 A 
ATOM      9  N   UNL     1     -21.112  28.695  27.525  0.00  0.00    -0.283 N 
ATOM     36  H   UNL     1     -21.472  27.774  27.775  0.00  0.00    +0.155 HD
ATOM     37  N   UNL     1     -22.195  28.514  25.452  0.00  0.00    -0.214 NA
BRANCH   4   3
ATOM      1  C   UNL     1     -24.596  25.895  22.941  0.00  0.00    +0.020 A 
ATOM      2  C   UNL     1     -23.772  26.728  23.786  0.00  0.00    +0.013 A 
ATOM      3  C   UNL     1     -23.396  28.072  23.367  0.00  0.00    +0.019 A 
ATOM     38  C   UNL     1     -23.874  28.547  22.077  0.00  0.00    +0.120 A 
ATOM     39  N   UNL     1     -24.665  27.722  21.284  0.00  0.00    -0.263 NA
ATOM     40  C   UNL     1     -25.032  26.426  21.676  0.00  0.00    +0.111 A 
ENDBRANCH   4   3
ENDBRANCH  10   9
BRANCH  12  13
ATOM     13  N   UNL     1     -20.323  32.729  30.328  0.00  0.00    -0.281 N 
ATOM     14  C   UNL     1     -20.589  33.088  31.639  0.00  0.00    +0.248 C 
ATOM     30  O   UNL     1     -20.742  32.294  32.556  0.00  0.00    -0.270 OA
ATOM     31  H   UNL     1     -20.412  33.470  29.633  0.00  0.00    +0.155 HD
BRANCH  14  15
ATOM     15  C   UNL     1     -20.718  34.538  31.979  0.00  0.00    +0.037 A 
ATOM     16  C   UNL     1     -20.710  34.996  33.371  0.00  0.00    +0.013 A 
ATOM     17  C   UNL     1     -20.853  36.399  33.671  0.00  0.00    +0.005 A 
ATOM     18  C   UNL     1     -21.003  37.354  32.576  0.00  0.00    -0.033 A 
ATOM     28  C   UNL     1     -21.002  36.873  31.205  0.00  0.00    +0.005 A 
ATOM     29  C   UNL     1     -20.863  35.499  30.906  0.00  0.00    +0.013 A 
BRANCH  18  19
ATOM     19  C   UNL     1     -21.182  38.866  32.805  0.00  0.00    +0.119 C 
BRANCH  19  20
ATOM     20  N   UNL     1     -19.993  39.631  33.285  0.00  0.00    -0.302 NA
ATOM     21  C   UNL     1     -18.694  39.134  32.645  0.00  0.00    +0.066 C 
ATOM     22  C   UNL     1     -17.462  39.960  33.142  0.00  0.00    -0.064 C 
ATOM     23  N   UNL     1     -17.380  39.880  34.667  0.00  0.00    +0.379 N 
ATOM     24  C   UNL     1     -16.190  40.607  35.133  0.00  0.00    -0.096 C 
ATOM     25  H   UNL     1     -17.250  38.807  34.942  0.00  0.00    -0.082 HD
ATOM     26  C   UNL     1     -18.669  40.369  35.312  0.00  0.00    -0.064 C 
ATOM     27  C   UNL     1     -19.890  39.562  34.789  0.00  0.00    +0.066 C 
ENDBRANCH  19  20
ENDBRANCH  18  19
ENDBRANCH  14  15
ENDBRANCH  12  13
TORSDOF 6
ENDMDL
MODEL 5
REMARK VINA RESULT:      -7.6      9.964     15.096
REMARK  Name = C:\Users\Docking\Desktop\test protocol\1iep_ligandH.pdb
REMARK  8 active torsions:
REMARK  status: ('A' for Active; 'I' for Inactive)
REMARK    1  A    between atoms: _5  and  _11
REMARK    2  A    between atoms: _19  and  _21
REMARK    3  A    between atoms: _22  and  _66
REMARK    4  A    between atoms: _27  and  _30
REMARK    5  A    between atoms: _32  and  _33
REMARK    6  A    between atoms: _38  and  _43
REMARK    7  A    between atoms: _43  and  _46
REMARK    8  A    between atoms: _53  and  _55
REMARK                            x       y       z     vdW  Elec       q    Type
REMARK                         _______ _______ _______ _____ _____    ______ ____
ROOT
ATOM     10  C   UNL     1     -15.114  20.680  30.580  0.00  0.00    +0.038 A 
ATOM     11  C   UNL     1     -14.214  20.009  29.713  0.00  0.00    +0.047 A 
ATOM     12  C   UNL     1     -13.250  19.048  30.227  0.00  0.00    +0.035 A 
ATOM     32  C   UNL     1     -13.230  18.794  31.629  0.00  0.00    +0.024 A 
ATOM     33  C   UNL     1     -14.137  19.468  32.525  0.00  0.00    +0.007 A 
ATOM     34  C   UNL     1     -15.089  20.418  32.025  0.00  0.00    -0.029 A 
ATOM     35  C   UNL     1     -16.032  21.116  33.032  0.00  0.00    +0.045 C 
ENDROOT
BRANCH  10   9
ATOM      4  C   UNL     1     -16.420  25.136  29.365  0.00  0.00    +0.077 A 
ATOM      5  C   UNL     1     -15.208  25.697  29.888  0.00  0.00    +0.048 A 
ATOM      6  C   UNL     1     -14.277  24.806  30.468  0.00  0.00    +0.116 A 
ATOM      7  N   UNL     1     -14.549  23.456  30.515  0.00  0.00    -0.223 NA
ATOM      8  C   UNL     1     -15.728  22.947  30.004  0.00  0.00    +0.220 A 
ATOM      9  N   UNL     1     -16.019  21.592  30.034  0.00  0.00    -0.283 N 
ATOM     36  H   UNL     1     -16.903  21.257  29.652  0.00  0.00    +0.155 HD
ATOM     37  N   UNL     1     -16.634  23.778  29.446  0.00  0.00    -0.214 NA
BRANCH   4   3
ATOM      1  C   UNL     1     -19.294  26.303  26.982  0.00  0.00    +0.020 A 
ATOM      2  C   UNL     1     -18.261  25.480  27.568  0.00  0.00    +0.013 A 
ATOM      3  C   UNL     1     -17.499  25.948  28.719  0.00  0.00    +0.019 A 
ATOM     38  C   UNL     1     -17.810  27.263  29.257  0.00  0.00    +0.120 A 
ATOM     39  N   UNL     1     -18.808  28.034  28.671  0.00  0.00    -0.263 NA
ATOM     40  C   UNL     1     -19.547  27.595  27.562  0.00  0.00    +0.111 A 
ENDBRANCH   4   3
ENDBRANCH  10   9
BRANCH  12  13
ATOM     13  N   UNL     1     -12.306  18.342  29.396  0.00  0.00    -0.281 N 
ATOM     14  C   UNL     1     -10.926  18.462  29.382  0.00  0.00    +0.248 C 
ATOM     30  O   UNL     1     -10.305  19.356  29.938  0.00  0.00    -0.270 OA
ATOM     31  H   UNL     1     -12.704  17.672  28.737  0.00  0.00    +0.155 HD
BRANCH  14  15
ATOM     15  C   UNL     1     -10.121  17.452  28.631  0.00  0.00    +0.037 A 
ATOM     16  C   UNL     1      -9.664  17.709  27.263  0.00  0.00    +0.013 A 
ATOM     17  C   UNL     1      -8.903  16.710  26.555  0.00  0.00    +0.005 A 
ATOM     18  C   UNL     1      -8.592  15.445  27.216  0.00  0.00    -0.033 A 
ATOM     28  C   UNL     1      -9.053  15.219  28.575  0.00  0.00    +0.005 A 
ATOM     29  C   UNL     1      -9.800  16.195  29.272  0.00  0.00    +0.013 A 
BRANCH  18  19
ATOM     19  C   UNL     1      -7.803  14.314  26.529  0.00  0.00    +0.119 C 
BRANCH  19  20
ATOM     20  N   UNL     1      -8.554  13.072  26.179  0.00  0.00    -0.302 NA
ATOM     21  C   UNL     1      -8.140  11.885  27.052  0.00  0.00    +0.066 C 
ATOM     22  C   UNL     1      -8.951  10.599  26.687  0.00  0.00    -0.064 C 
ATOM     23  N   UNL     1      -8.752  10.277  25.205  0.00  0.00    +0.379 N 
ATOM     24  C   UNL     1      -9.467   9.036  24.873  0.00  0.00    -0.096 C 
ATOM     25  H   UNL     1      -7.664  10.095  25.042  0.00  0.00    -0.082 HD
ATOM     26  C   UNL     1      -9.159  11.453  24.330  0.00  0.00    -0.064 C 
ATOM     27  C   UNL     1      -8.368  12.733  24.720  0.00  0.00    +0.066 C 
ENDBRANCH  19  20
ENDBRANCH  18  19
ENDBRANCH  14  15
ENDBRANCH  12  13
TORSDOF 6
ENDMDL
