MODEL 1
REMARK VINA RESULT:      -9.0      0.000      0.000
REMARK  Name = C:\Users\Docking\Desktop\test protocol\1iep_ligandH.pdb
REMARK  8 active torsions:
REMARK  status: ('A' for Active; 'I' for Inactive)
REMARK    1  A    between atoms: _5  and  _11
REMARK    2  A    between atoms: _19  and  _21
REMARK    3  A    between atoms: _22  and  _66
REMARK    4  A    between atoms: _27  and  _30
REMARK    5  A    between atoms: _32  and  _33
REMARK    6  A    between atoms: _38  and  _43
REMARK    7  A    between atoms: _43  and  _46
REMARK    8  A    between atoms: _53  and  _55
REMARK                            x       y       z     vdW  Elec       q    Type
REMARK                         _______ _______ _______ _____ _____    ______ ____
ROOT
ATOM     10  C   UNL     1      13.535 146.814  90.716  0.00  0.00    +0.038 A 
ATOM     11  C   UNL     1      12.508 145.838  90.771  0.00  0.00    +0.047 A 
ATOM     12  C   UNL     1      11.108 146.222  90.859  0.00  0.00    +0.035 A 
ATOM     32  C   UNL     1      10.789 147.611  90.887  0.00  0.00    +0.024 A 
ATOM     33  C   UNL     1      11.821 148.617  90.833  0.00  0.00    +0.007 A 
ATOM     34  C   UNL     1      13.204 148.244  90.748  0.00  0.00    -0.029 A 
ATOM     35  C   UNL     1      14.268 149.365  90.700  0.00  0.00    +0.045 C 
ENDROOT
BRANCH  10   9
ATOM      4  C   UNL     1      17.802 145.846  92.689  0.00  0.00    +0.077 A 
ATOM      5  C   UNL     1      17.357 146.247  93.992  0.00  0.00    +0.048 A 
ATOM      6  C   UNL     1      16.025 146.703  94.111  0.00  0.00    +0.116 A 
ATOM      7  N   UNL     1      15.208 146.750  93.002  0.00  0.00    -0.223 NA
ATOM      8  C   UNL     1      15.669 146.357  91.759  0.00  0.00    +0.220 A 
ATOM      9  N   UNL     1      14.863 146.389  90.632  0.00  0.00    -0.283 N 
ATOM     36  H   UNL     1      15.243 146.098  89.732  0.00  0.00    +0.155 HD
ATOM     37  N   UNL     1      16.938 145.919  91.619  0.00  0.00    -0.214 NA
BRANCH   4   3
ATOM      1  C   UNL     1      21.610 145.006  92.999  0.00  0.00    +0.020 A 
ATOM      2  C   UNL     1      20.298 145.516  93.323  0.00  0.00    +0.013 A 
ATOM      3  C   UNL     1      19.181 145.338  92.403  0.00  0.00    +0.019 A 
ATOM     38  C   UNL     1      19.428 144.633  91.154  0.00  0.00    +0.120 A 
ATOM     39  N   UNL     1      20.703 144.153  90.869  0.00  0.00    -0.263 NA
ATOM     40  C   UNL     1      21.785 144.321  91.746  0.00  0.00    +0.111 A 
ENDBRANCH   4   3
ENDBRANCH  10   9
BRANCH  12  13
ATOM     13  N   UNL     1      10.023 145.275  90.926  0.00  0.00    -0.281 N 
ATOM     14  C   UNL     1       9.454 144.710  92.055  0.00  0.00    +0.248 C 
ATOM     30  O   UNL     1       9.936 144.772  93.177  0.00  0.00    -0.270 OA
ATOM     31  H   UNL     1       9.625 144.987  90.032  0.00  0.00    +0.155 HD
BRANCH  14  15
ATOM     15  C   UNL     1       8.171 143.956  91.917  0.00  0.00    +0.037 A 
ATOM     16  C   UNL     1       7.904 142.757  92.716  0.00  0.00    +0.013 A 
ATOM     17  C   UNL     1       6.666 142.038  92.551  0.00  0.00    +0.005 A 
ATOM     18  C   UNL     1       5.683 142.518  91.583  0.00  0.00    -0.033 A 
ATOM     28  C   UNL     1       5.970 143.714  90.807  0.00  0.00    +0.005 A 
ATOM     29  C   UNL     1       7.184 144.420  90.966  0.00  0.00    +0.013 A 
BRANCH  18  19
ATOM     19  C   UNL     1       4.344 141.802  91.326  0.00  0.00    +0.119 C 
BRANCH  19  20
ATOM     20  N   UNL     1       3.097 142.613  91.465  0.00  0.00    -0.302 NA
ATOM     21  C   UNL     1       2.892 143.109  92.899  0.00  0.00    +0.066 C 
ATOM     22  C   UNL     1       1.595 143.974  93.022  0.00  0.00    -0.064 C 
ATOM     23  N   UNL     1       0.392 143.153  92.555  0.00  0.00    +0.379 N 
ATOM     24  C   UNL     1      -0.836 143.944  92.724  0.00  0.00    -0.096 C 
ATOM     25  H   UNL     1       0.313 142.261  93.218  0.00  0.00    -0.082 HD
ATOM     26  C   UNL     1       0.589 142.654  91.130  0.00  0.00    -0.064 C 
ATOM     27  C   UNL     1       1.895 141.820  91.013  0.00  0.00    +0.066 C 
ENDBRANCH  19  20
ENDBRANCH  18  19
ENDBRANCH  14  15
ENDBRANCH  12  13
TORSDOF 6
ENDMDL
MODEL 2
REMARK VINA RESULT:      -8.9      3.595      7.857
REMARK  Name = C:\Users\Docking\Desktop\test protocol\1iep_ligandH.pdb
REMARK  8 active torsions:
REMARK  status: ('A' for Active; 'I' for Inactive)
REMARK    1  A    between atoms: _5  and  _11
REMARK    2  A    between atoms: _19  and  _21
REMARK    3  A    between atoms: _22  and  _66
REMARK    4  A    between atoms: _27  and  _30
REMARK    5  A    between atoms: _32  and  _33
REMARK    6  A    between atoms: _38  and  _43
REMARK    7  A    between atoms: _43  and  _46
REMARK    8  A    between atoms: _53  and  _55
REMARK                            x       y       z     vdW  Elec       q    Type
REMARK                         _______ _______ _______ _____ _____    ______ ____
ROOT
ATOM     10  C   UNL     1       7.184 142.535  92.435  0.00  0.00    +0.038 A 
ATOM     11  C   UNL     1       6.037 143.368  92.399  0.00  0.00    +0.047 A 
ATOM     12  C   UNL     1       4.697 142.803  92.372  0.00  0.00    +0.035 A 
ATOM     32  C   UNL     1       4.561 141.384  92.384  0.00  0.00    +0.024 A 
ATOM     33  C   UNL     1       5.716 140.522  92.419  0.00  0.00    +0.007 A 
ATOM     34  C   UNL     1       7.041 141.074  92.443  0.00  0.00    -0.029 A 
ATOM     35  C   UNL     1       8.243 140.102  92.473  0.00  0.00    +0.045 C 
ENDROOT
BRANCH  10   9
ATOM      4  C   UNL     1      10.256 145.998  91.166  0.00  0.00    +0.077 A 
ATOM      5  C   UNL     1       9.269 146.661  90.364  0.00  0.00    +0.048 A 
ATOM      6  C   UNL     1       7.985 146.075  90.298  0.00  0.00    +0.116 A 
ATOM      7  N   UNL     1       7.719 144.912  90.988  0.00  0.00    -0.223 NA
ATOM      8  C   UNL     1       8.694 144.297  91.752  0.00  0.00    +0.220 A 
ATOM      9  N   UNL     1       8.447 143.131  92.460  0.00  0.00    -0.283 N 
ATOM     36  H   UNL     1       9.195 142.704  93.006  0.00  0.00    +0.155 HD
ATOM     37  N   UNL     1       9.929 144.836  91.829  0.00  0.00    -0.214 NA
BRANCH   4   3
ATOM      1  C   UNL     1      13.929 147.132  90.445  0.00  0.00    +0.020 A 
ATOM      2  C   UNL     1      12.587 146.646  90.225  0.00  0.00    +0.013 A 
ATOM      3  C   UNL     1      11.657 146.496  91.338  0.00  0.00    +0.019 A 
ATOM     38  C   UNL     1      12.122 146.849  92.671  0.00  0.00    +0.120 A 
ATOM     39  N   UNL     1      13.421 147.313  92.853  0.00  0.00    -0.263 NA
ATOM     40  C   UNL     1      14.324 147.461  91.790  0.00  0.00    +0.111 A 
ENDBRANCH   4   3
ENDBRANCH  10   9
BRANCH  12  13
ATOM     13  N   UNL     1       3.495 143.599  92.328  0.00  0.00    -0.281 N 
ATOM     14  C   UNL     1       2.856 144.115  91.212  0.00  0.00    +0.248 C 
ATOM     30  O   UNL     1       3.342 144.150  90.091  0.00  0.00    -0.270 OA
ATOM     31  H   UNL     1       3.064 143.808  93.228  0.00  0.00    +0.155 HD
BRANCH  14  15
ATOM     15  C   UNL     1       1.484 144.689  91.367  0.00  0.00    +0.037 A 
ATOM     16  C   UNL     1       0.779 144.637  92.650  0.00  0.00    +0.013 A 
ATOM     17  C   UNL     1      -0.550 145.183  92.767  0.00  0.00    +0.005 A 
ATOM     18  C   UNL     1      -1.182 145.787  91.596  0.00  0.00    -0.033 A 
ATOM     28  C   UNL     1      -0.458 145.829  90.337  0.00  0.00    +0.005 A 
ATOM     29  C   UNL     1       0.845 145.294  90.218  0.00  0.00    +0.013 A 
BRANCH  18  19
ATOM     19  C   UNL     1      -2.605 146.374  91.624  0.00  0.00    +0.119 C 
BRANCH  19  20
ATOM     20  N   UNL     1      -3.636 145.632  92.410  0.00  0.00    -0.302 NA
ATOM     21  C   UNL     1      -3.867 144.220  91.865  0.00  0.00    +0.066 C 
ATOM     22  C   UNL     1      -4.932 143.450  92.713  0.00  0.00    -0.064 C 
ATOM     23  N   UNL     1      -6.239 144.245  92.729  0.00  0.00    +0.379 N 
ATOM     24  C   UNL     1      -7.260 143.496  93.476  0.00  0.00    -0.096 C 
ATOM     25  H   UNL     1      -6.591 144.338  91.675  0.00  0.00    -0.082 HD
ATOM     26  C   UNL     1      -6.018 145.652  93.266  0.00  0.00    -0.064 C 
ATOM     27  C   UNL     1      -4.936 146.398  92.435  0.00  0.00    +0.066 C 
ENDBRANCH  19  20
ENDBRANCH  18  19
ENDBRANCH  14  15
ENDBRANCH  12  13
TORSDOF 6
ENDMDL
MODEL 3
REMARK VINA RESULT:      -8.6      3.991      6.387
REMARK  Name = C:\Users\Docking\Desktop\test protocol\1iep_ligandH.pdb
REMARK  8 active torsions:
REMARK  status: ('A' for Active; 'I' for Inactive)
REMARK    1  A    between atoms: _5  and  _11
REMARK    2  A    between atoms: _19  and  _21
REMARK    3  A    between atoms: _22  and  _66
REMARK    4  A    between atoms: _27  and  _30
REMARK    5  A    between atoms: _32  and  _33
REMARK    6  A    between atoms: _38  and  _43
REMARK    7  A    between atoms: _43  and  _46
REMARK    8  A    between atoms: _53  and  _55
REMARK                            x       y       z     vdW  Elec       q    Type
REMARK                         _______ _______ _______ _____ _____    ______ ____
ROOT
ATOM     10  C   UNL     1      18.229 145.096  92.832  0.00  0.00    +0.038 A 
ATOM     11  C   UNL     1      16.853 145.186  92.498  0.00  0.00    +0.047 A 
ATOM     12  C   UNL     1      15.955 146.062  93.235  0.00  0.00    +0.035 A 
ATOM     32  C   UNL     1      16.493 146.834  94.305  0.00  0.00    +0.024 A 
ATOM     33  C   UNL     1      17.889 146.755  94.659  0.00  0.00    +0.007 A 
ATOM     34  C   UNL     1      18.779 145.891  93.937  0.00  0.00    -0.029 A 
ATOM     35  C   UNL     1      20.264 145.840  94.364  0.00  0.00    +0.045 C 
ENDROOT
BRANCH  10   9
ATOM      4  C   UNL     1      21.073 144.151  89.083  0.00  0.00    +0.077 A 
ATOM      5  C   UNL     1      20.896 145.468  88.541  0.00  0.00    +0.048 A 
ATOM      6  C   UNL     1      20.060 146.356  89.254  0.00  0.00    +0.116 A 
ATOM      7  N   UNL     1      19.451 145.947  90.421  0.00  0.00    -0.223 NA
ATOM      8  C   UNL     1      19.641 144.669  90.915  0.00  0.00    +0.220 A 
ATOM      9  N   UNL     1      19.045 144.239  92.090  0.00  0.00    -0.283 N 
ATOM     36  H   UNL     1      19.205 143.287  92.417  0.00  0.00    +0.155 HD
ATOM     37  N   UNL     1      20.434 143.802  90.252  0.00  0.00    -0.214 NA
BRANCH   4   3
ATOM      1  C   UNL     1      23.667 141.275  88.540  0.00  0.00    +0.020 A 
ATOM      2  C   UNL     1      22.864 142.276  89.202  0.00  0.00    +0.013 A 
ATOM      3  C   UNL     1      21.929 143.101  88.447  0.00  0.00    +0.019 A 
ATOM     38  C   UNL     1      21.830 142.885  87.011  0.00  0.00    +0.120 A 
ATOM     39  N   UNL     1      22.618 141.914  86.400  0.00  0.00    -0.263 NA
ATOM     40  C   UNL     1      23.522 141.116  87.117  0.00  0.00    +0.111 A 
ENDBRANCH   4   3
ENDBRANCH  10   9
BRANCH  12  13
ATOM     13  N   UNL     1      14.548 146.188  92.947  0.00  0.00    -0.281 N 
ATOM     14  C   UNL     1      13.922 147.141  92.160  0.00  0.00    +0.248 C 
ATOM     30  O   UNL     1      14.457 148.162  91.754  0.00  0.00    -0.270 OA
ATOM     31  H   UNL     1      13.940 145.491  93.376  0.00  0.00    +0.155 HD
BRANCH  14  15
ATOM     15  C   UNL     1      12.491 146.937  91.781  0.00  0.00    +0.037 A 
ATOM     16  C   UNL     1      11.972 145.605  91.462  0.00  0.00    +0.013 A 
ATOM     17  C   UNL     1      10.591 145.439  91.083  0.00  0.00    +0.005 A 
ATOM     18  C   UNL     1       9.719 146.609  91.021  0.00  0.00    -0.033 A 
ATOM     28  C   UNL     1      10.259 147.919  91.348  0.00  0.00    +0.005 A 
ATOM     29  C   UNL     1      11.612 148.086  91.719  0.00  0.00    +0.013 A 
BRANCH  18  19
ATOM     19  C   UNL     1       8.238 146.528  90.606  0.00  0.00    +0.119 C 
BRANCH  19  20
ATOM     20  N   UNL     1       7.945 146.328  89.155  0.00  0.00    -0.302 NA
ATOM     21  C   UNL     1       8.591 147.410  88.284  0.00  0.00    +0.066 C 
ATOM     22  C   UNL     1       8.293 147.172  86.768  0.00  0.00    -0.064 C 
ATOM     23  N   UNL     1       6.779 147.132  86.549  0.00  0.00    +0.379 N 
ATOM     24  C   UNL     1       6.495 146.967  85.116  0.00  0.00    -0.096 C 
ATOM     25  H   UNL     1       6.366 148.119  86.864  0.00  0.00    -0.082 HD
ATOM     26  C   UNL     1       6.129 146.062  87.413  0.00  0.00    -0.064 C 
ATOM     27  C   UNL     1       6.456 146.290  88.916  0.00  0.00    +0.066 C 
ENDBRANCH  19  20
ENDBRANCH  18  19
ENDBRANCH  14  15
ENDBRANCH  12  13
TORSDOF 6
ENDMDL
MODEL 4
REMARK VINA RESULT:      -8.5      2.408      3.608
REMARK  Name = C:\Users\Docking\Desktop\test protocol\1iep_ligandH.pdb
REMARK  8 active torsions:
REMARK  status: ('A' for Active; 'I' for Inactive)
REMARK    1  A    between atoms: _5  and  _11
REMARK    2  A    between atoms: _19  and  _21
REMARK    3  A    between atoms: _22  and  _66
REMARK    4  A    between atoms: _27  and  _30
REMARK    5  A    between atoms: _32  and  _33
REMARK    6  A    between atoms: _38  and  _43
REMARK    7  A    between atoms: _43  and  _46
REMARK    8  A    between atoms: _53  and  _55
REMARK                            x       y       z     vdW  Elec       q    Type
REMARK                         _______ _______ _______ _____ _____    ______ ____
ROOT
ATOM     10  C   UNL     1      13.733 146.633  91.025  0.00  0.00    +0.038 A 
ATOM     11  C   UNL     1      12.794 145.583  91.190  0.00  0.00    +0.047 A 
ATOM     12  C   UNL     1      11.363 145.842  91.162  0.00  0.00    +0.035 A 
ATOM     32  C   UNL     1      10.923 147.183  90.960  0.00  0.00    +0.024 A 
ATOM     33  C   UNL     1      11.864 148.262  90.792  0.00  0.00    +0.007 A 
ATOM     34  C   UNL     1      13.277 148.013  90.822  0.00  0.00    -0.029 A 
ATOM     35  C   UNL     1      14.239 149.210  90.643  0.00  0.00    +0.045 C 
ENDROOT
BRANCH  10   9
ATOM      4  C   UNL     1      17.877 146.038  93.374  0.00  0.00    +0.077 A 
ATOM      5  C   UNL     1      17.283 146.391  94.631  0.00  0.00    +0.048 A 
ATOM      6  C   UNL     1      15.911 146.727  94.629  0.00  0.00    +0.116 A 
ATOM      7  N   UNL     1      15.195 146.706  93.452  0.00  0.00    -0.223 NA
ATOM      8  C   UNL     1      15.798 146.362  92.256  0.00  0.00    +0.220 A 
ATOM      9  N   UNL     1      15.096 146.327  91.061  0.00  0.00    -0.283 N 
ATOM     36  H   UNL     1      15.579 146.076  90.199  0.00  0.00    +0.155 HD
ATOM     37  N   UNL     1      17.108 146.039  92.231  0.00  0.00    -0.214 NA
BRANCH   4   3
ATOM      1  C   UNL     1      21.201 144.505  91.996  0.00  0.00    +0.020 A 
ATOM      2  C   UNL     1      19.801 144.845  92.104  0.00  0.00    +0.013 A 
ATOM      3  C   UNL     1      19.316 145.656  93.214  0.00  0.00    +0.019 A 
ATOM     38  C   UNL     1      20.280 146.111  94.204  0.00  0.00    +0.120 A 
ATOM     39  N   UNL     1      21.622 145.766  94.074  0.00  0.00    -0.263 NA
ATOM     40  C   UNL     1      22.101 144.985  93.012  0.00  0.00    +0.111 A 
ENDBRANCH   4   3
ENDBRANCH  10   9
BRANCH  12  13
ATOM     13  N   UNL     1      10.363 144.817  91.331  0.00  0.00    -0.281 N 
ATOM     14  C   UNL     1       9.250 144.842  92.156  0.00  0.00    +0.248 C 
ATOM     30  O   UNL     1       9.061 145.667  93.037  0.00  0.00    -0.270 OA
ATOM     31  H   UNL     1      10.491 143.971  90.776  0.00  0.00    +0.155 HD
BRANCH  14  15
ATOM     15  C   UNL     1       8.202 143.789  91.986  0.00  0.00    +0.037 A 
ATOM     16  C   UNL     1       7.051 143.998  91.105  0.00  0.00    +0.013 A 
ATOM     17  C   UNL     1       6.046 142.973  90.972  0.00  0.00    +0.005 A 
ATOM     18  C   UNL     1       6.189 141.728  91.724  0.00  0.00    -0.033 A 
ATOM     28  C   UNL     1       7.345 141.545  92.587  0.00  0.00    +0.005 A 
ATOM     29  C   UNL     1       8.331 142.548  92.720  0.00  0.00    +0.013 A 
BRANCH  18  19
ATOM     19  C   UNL     1       5.155 140.589  91.660  0.00  0.00    +0.119 C 
BRANCH  19  20
ATOM     20  N   UNL     1       5.650 139.237  91.262  0.00  0.00    -0.302 NA
ATOM     21  C   UNL     1       6.140 139.209  89.811  0.00  0.00    +0.066 C 
ATOM     22  C   UNL     1       6.676 137.794  89.419  0.00  0.00    -0.064 C 
ATOM     23  N   UNL     1       5.574 136.756  89.639  0.00  0.00    +0.379 N 
ATOM     24  C   UNL     1       6.055 135.432  89.216  0.00  0.00    -0.096 C 
ATOM     25  H   UNL     1       4.716 137.030  88.982  0.00  0.00    -0.082 HD
ATOM     26  C   UNL     1       5.079 136.779  91.078  0.00  0.00    -0.064 C 
ATOM     27  C   UNL     1       4.576 138.197  91.467  0.00  0.00    +0.066 C 
ENDBRANCH  19  20
ENDBRANCH  18  19
ENDBRANCH  14  15
ENDBRANCH  12  13
TORSDOF 6
ENDMDL
MODEL 5
REMARK VINA RESULT:      -8.5      3.439      7.605
REMARK  Name = C:\Users\Docking\Desktop\test protocol\1iep_ligandH.pdb
REMARK  8 active torsions:
REMARK  status: ('A' for Active; 'I' for Inactive)
REMARK    1  A    between atoms: _5  and  _11
REMARK    2  A    between atoms: _19  and  _21
REMARK    3  A    between atoms: _22  and  _66
REMARK    4  A    between atoms: _27  and  _30
REMARK    5  A    between atoms: _32  and  _33
REMARK    6  A    between atoms: _38  and  _43
REMARK    7  A    between atoms: _43  and  _46
REMARK    8  A    between atoms: _53  and  _55
REMARK                            x       y       z     vdW  Elec       q    Type
REMARK                         _______ _______ _______ _____ _____    ______ ____
ROOT
ATOM     10  C   UNL     1      19.886 144.555  91.914  0.00  0.00    +0.038 A 
ATOM     11  C   UNL     1      18.522 144.926  91.802  0.00  0.00    +0.047 A 
ATOM     12  C   UNL     1      17.958 145.979  92.632  0.00  0.00    +0.035 A 
ATOM     32  C   UNL     1      18.813 146.636  93.564  0.00  0.00    +0.024 A 
ATOM     33  C   UNL     1      20.203 146.272  93.691  0.00  0.00    +0.007 A 
ATOM     34  C   UNL     1      20.764 145.232  92.877  0.00  0.00    -0.029 A 
ATOM     35  C   UNL     1      22.258 144.878  93.060  0.00  0.00    +0.045 C 
ENDROOT
BRANCH  10   9
ATOM      4  C   UNL     1      22.045 143.014  87.913  0.00  0.00    +0.077 A 
ATOM      5  C   UNL     1      22.187 144.348  87.405  0.00  0.00    +0.048 A 
ATOM      6  C   UNL     1      21.685 145.403  88.201  0.00  0.00    +0.116 A 
ATOM      7  N   UNL     1      21.088 145.131  89.413  0.00  0.00    -0.223 NA
ATOM      8  C   UNL     1      20.965 143.833  89.873  0.00  0.00    +0.220 A 
ATOM      9  N   UNL     1      20.375 143.537  91.092  0.00  0.00    -0.283 N 
ATOM     36  H   UNL     1      20.297 142.566  91.392  0.00  0.00    +0.155 HD
ATOM     37  N   UNL     1      21.435 142.809  89.131  0.00  0.00    -0.214 NA
BRANCH   4   3
ATOM      1  C   UNL     1      22.946 140.459  85.092  0.00  0.00    +0.020 A 
ATOM      2  C   UNL     1      22.466 141.657  85.741  0.00  0.00    +0.013 A 
ATOM      3  C   UNL     1      22.528 141.796  87.191  0.00  0.00    +0.019 A 
ATOM     38  C   UNL     1      23.088 140.695  87.960  0.00  0.00    +0.120 A 
ATOM     39  N   UNL     1      23.542 139.553  87.308  0.00  0.00    -0.263 NA
ATOM     40  C   UNL     1      23.485 139.408  85.914  0.00  0.00    +0.111 A 
ENDBRANCH   4   3
ENDBRANCH  10   9
BRANCH  12  13
ATOM     13  N   UNL     1      16.578 146.393  92.569  0.00  0.00    -0.281 N 
ATOM     14  C   UNL     1      15.987 147.250  91.656  0.00  0.00    +0.248 C 
ATOM     30  O   UNL     1      16.603 147.964  90.879  0.00  0.00    -0.270 OA
ATOM     31  H   UNL     1      15.962 146.006  93.285  0.00  0.00    +0.155 HD
BRANCH  14  15
ATOM     15  C   UNL     1      14.496 147.340  91.610  0.00  0.00    +0.037 A 
ATOM     16  C   UNL     1      13.715 147.649  92.811  0.00  0.00    +0.013 A 
ATOM     17  C   UNL     1      12.277 147.712  92.742  0.00  0.00    +0.005 A 
ATOM     18  C   UNL     1      11.609 147.467  91.466  0.00  0.00    -0.033 A 
ATOM     28  C   UNL     1      12.408 147.167  90.289  0.00  0.00    +0.005 A 
ATOM     29  C   UNL     1      13.818 147.103  90.353  0.00  0.00    +0.013 A 
BRANCH  18  19
ATOM     19  C   UNL     1      10.078 147.492  91.305  0.00  0.00    +0.119 C 
BRANCH  19  20
ATOM     20  N   UNL     1       9.328 146.264  91.701  0.00  0.00    -0.302 NA
ATOM     21  C   UNL     1      10.252 145.054  91.865  0.00  0.00    +0.066 C 
ATOM     22  C   UNL     1       9.454 143.783  92.302  0.00  0.00    -0.064 C 
ATOM     23  N   UNL     1       8.360 143.492  91.273  0.00  0.00    +0.379 N 
ATOM     24  C   UNL     1       7.645 142.264  91.651  0.00  0.00    -0.096 C 
ATOM     25  H   UNL     1       8.858 143.306  90.294  0.00  0.00    -0.082 HD
ATOM     26  C   UNL     1       7.437 144.691  91.102  0.00  0.00    -0.064 C 
ATOM     27  C   UNL     1       8.244 145.956  90.697  0.00  0.00    +0.066 C 
ENDBRANCH  19  20
ENDBRANCH  18  19
ENDBRANCH  14  15
ENDBRANCH  12  13
TORSDOF 6
ENDMDL
