MODEL 1
REMARK VINA RESULT:      -8.6      0.000      0.000
REMARK  Name = C:\Users\Docking\Desktop\test protocol\1iep_ligandH.pdb
REMARK  8 active torsions:
REMARK  status: ('A' for Active; 'I' for Inactive)
REMARK    1  A    between atoms: _5  and  _11
REMARK    2  A    between atoms: _19  and  _21
REMARK    3  A    between atoms: _22  and  _66
REMARK    4  A    between atoms: _27  and  _30
REMARK    5  A    between atoms: _32  and  _33
REMARK    6  A    between atoms: _38  and  _43
REMARK    7  A    between atoms: _43  and  _46
REMARK    8  A    between atoms: _53  and  _55
REMARK                            x       y       z     vdW  Elec       q    Type
REMARK                         _______ _______ _______ _____ _____    ______ ____
ROOT
ATOM     10  C   UNL     1      15.338   7.693  25.192  0.00  0.00    +0.038 A 
ATOM     11  C   UNL     1      15.026   8.589  24.137  0.00  0.00    +0.047 A 
ATOM     12  C   UNL     1      15.916   8.749  22.998  0.00  0.00    +0.035 A 
ATOM     32  C   UNL     1      17.114   7.978  22.963  0.00  0.00    +0.024 A 
ATOM     33  C   UNL     1      17.447   7.064  24.027  0.00  0.00    +0.007 A 
ATOM     34  C   UNL     1      16.575   6.904  25.155  0.00  0.00    -0.029 A 
ATOM     35  C   UNL     1      16.986   5.914  26.269  0.00  0.00    +0.045 C 
ENDROOT
BRANCH  10   9
ATOM      4  C   UNL     1      11.643   5.589  27.419  0.00  0.00    +0.077 A 
ATOM      5  C   UNL     1      11.453   4.655  26.347  0.00  0.00    +0.048 A 
ATOM      6  C   UNL     1      12.323   4.754  25.238  0.00  0.00    +0.116 A 
ATOM      7  N   UNL     1      13.306   5.719  25.213  0.00  0.00    -0.223 NA
ATOM      8  C   UNL     1      13.461   6.606  26.262  0.00  0.00    +0.220 A 
ATOM      9  N   UNL     1      14.448   7.580  26.262  0.00  0.00    -0.283 N 
ATOM     36  H   UNL     1      14.525   8.220  27.052  0.00  0.00    +0.155 HD
ATOM     37  N   UNL     1      12.642   6.533  27.332  0.00  0.00    -0.214 NA
BRANCH   4   3
ATOM      1  C   UNL     1       8.588   5.610  29.862  0.00  0.00    +0.020 A 
ATOM      2  C   UNL     1       9.349   5.590  28.634  0.00  0.00    +0.013 A 
ATOM      3  C   UNL     1      10.807   5.610  28.660  0.00  0.00    +0.019 A 
ATOM     38  C   UNL     1      11.468   5.650  29.955  0.00  0.00    +0.120 A 
ATOM     39  N   UNL     1      10.709   5.671  31.121  0.00  0.00    -0.263 NA
ATOM     40  C   UNL     1       9.306   5.654  31.108  0.00  0.00    +0.111 A 
ENDBRANCH   4   3
ENDBRANCH  10   9
BRANCH  12  13
ATOM     13  N   UNL     1      15.656   9.649  21.902  0.00  0.00    -0.281 N 
ATOM     14  C   UNL     1      16.461  10.673  21.431  0.00  0.00    +0.248 C 
ATOM     30  O   UNL     1      17.438  11.110  22.020  0.00  0.00    -0.270 OA
ATOM     31  H   UNL     1      14.770   9.515  21.413  0.00  0.00    +0.155 HD
BRANCH  14  15
ATOM     15  C   UNL     1      16.124  11.314  20.123  0.00  0.00    +0.037 A 
ATOM     16  C   UNL     1      16.943  12.398  19.575  0.00  0.00    +0.013 A 
ATOM     17  C   UNL     1      16.586  13.010  18.319  0.00  0.00    +0.005 A 
ATOM     18  C   UNL     1      15.404  12.537  17.603  0.00  0.00    -0.033 A 
ATOM     28  C   UNL     1      14.612  11.456  18.167  0.00  0.00    +0.005 A 
ATOM     29  C   UNL     1      14.959  10.855  19.398  0.00  0.00    +0.013 A 
BRANCH  18  19
ATOM     19  C   UNL     1      14.936  13.146  16.268  0.00  0.00    +0.119 C 
BRANCH  19  20
ATOM     20  N   UNL     1      15.618  12.675  15.025  0.00  0.00    -0.302 NA
ATOM     21  C   UNL     1      16.103  13.841  14.159  0.00  0.00    +0.066 C 
ATOM     22  C   UNL     1      16.834  13.330  12.874  0.00  0.00    -0.064 C 
ATOM     23  N   UNL     1      15.892  12.421  12.082  0.00  0.00    +0.379 N 
ATOM     24  C   UNL     1      16.555  11.986  10.845  0.00  0.00    -0.096 C 
ATOM     25  H   UNL     1      15.001  13.027  11.794  0.00  0.00    -0.082 HD
ATOM     26  C   UNL     1      15.403  11.261  12.938  0.00  0.00    -0.064 C 
ATOM     27  C   UNL     1      14.704  11.779  14.226  0.00  0.00    +0.066 C 
ENDBRANCH  19  20
ENDBRANCH  18  19
ENDBRANCH  14  15
ENDBRANCH  12  13
TORSDOF 6
ENDMDL
MODEL 2
REMARK VINA RESULT:      -8.5      1.934      2.412
REMARK  Name = C:\Users\Docking\Desktop\test protocol\1iep_ligandH.pdb
REMARK  8 active torsions:
REMARK  status: ('A' for Active; 'I' for Inactive)
REMARK    1  A    between atoms: _5  and  _11
REMARK    2  A    between atoms: _19  and  _21
REMARK    3  A    between atoms: _22  and  _66
REMARK    4  A    between atoms: _27  and  _30
REMARK    5  A    between atoms: _32  and  _33
REMARK    6  A    between atoms: _38  and  _43
REMARK    7  A    between atoms: _43  and  _46
REMARK    8  A    between atoms: _53  and  _55
REMARK                            x       y       z     vdW  Elec       q    Type
REMARK                         _______ _______ _______ _____ _____    ______ ____
ROOT
ATOM     10  C   UNL     1      16.834   7.575  25.515  0.00  0.00    +0.038 A 
ATOM     11  C   UNL     1      16.354   8.459  24.515  0.00  0.00    +0.047 A 
ATOM     12  C   UNL     1      16.684   8.260  23.113  0.00  0.00    +0.035 A 
ATOM     32  C   UNL     1      17.504   7.148  22.763  0.00  0.00    +0.024 A 
ATOM     33  C   UNL     1      18.001   6.240  23.766  0.00  0.00    +0.007 A 
ATOM     34  C   UNL     1      17.681   6.433  25.152  0.00  0.00    -0.029 A 
ATOM     35  C   UNL     1      18.247   5.431  26.185  0.00  0.00    +0.045 C 
ENDROOT
BRANCH  10   9
ATOM      4  C   UNL     1      13.867   7.122  29.260  0.00  0.00    +0.077 A 
ATOM      5  C   UNL     1      12.918   6.369  28.493  0.00  0.00    +0.048 A 
ATOM      6  C   UNL     1      13.227   6.126  27.136  0.00  0.00    +0.116 A 
ATOM      7  N   UNL     1      14.402   6.605  26.597  0.00  0.00    -0.223 NA
ATOM      8  C   UNL     1      15.295   7.329  27.365  0.00  0.00    +0.220 A 
ATOM      9  N   UNL     1      16.486   7.814  26.846  0.00  0.00    -0.283 N 
ATOM     36  H   UNL     1      17.115   8.350  27.443  0.00  0.00    +0.155 HD
ATOM     37  N   UNL     1      15.022   7.576  28.663  0.00  0.00    -0.214 NA
BRANCH   4   3
ATOM      1  C   UNL     1      13.711   9.066  32.651  0.00  0.00    +0.020 A 
ATOM      2  C   UNL     1      13.903   8.795  31.245  0.00  0.00    +0.013 A 
ATOM      3  C   UNL     1      13.684   7.458  30.708  0.00  0.00    +0.019 A 
ATOM     38  C   UNL     1      13.268   6.409  31.628  0.00  0.00    +0.120 A 
ATOM     39  N   UNL     1      13.093   6.700  32.977  0.00  0.00    -0.263 NA
ATOM     40  C   UNL     1      13.303   7.983  33.505  0.00  0.00    +0.111 A 
ENDBRANCH   4   3
ENDBRANCH  10   9
BRANCH  12  13
ATOM     13  N   UNL     1      16.232   9.130  22.055  0.00  0.00    -0.281 N 
ATOM     14  C   UNL     1      16.730  10.374  21.704  0.00  0.00    +0.248 C 
ATOM     30  O   UNL     1      17.506  11.025  22.387  0.00  0.00    -0.270 OA
ATOM     31  H   UNL     1      15.450   8.786  21.497  0.00  0.00    +0.155 HD
BRANCH  14  15
ATOM     15  C   UNL     1      16.291  10.990  20.414  0.00  0.00    +0.037 A 
ATOM     16  C   UNL     1      17.145  11.940  19.697  0.00  0.00    +0.013 A 
ATOM     17  C   UNL     1      16.690  12.533  18.464  0.00  0.00    +0.005 A 
ATOM     18  C   UNL     1      15.375  12.174  17.940  0.00  0.00    -0.033 A 
ATOM     28  C   UNL     1      14.551  11.224  18.669  0.00  0.00    +0.005 A 
ATOM     29  C   UNL     1      14.993  10.642  19.878  0.00  0.00    +0.013 A 
BRANCH  18  19
ATOM     19  C   UNL     1      14.800  12.773  16.643  0.00  0.00    +0.119 C 
BRANCH  19  20
ATOM     20  N   UNL     1      15.553  12.517  15.379  0.00  0.00    -0.302 NA
ATOM     21  C   UNL     1      14.925  13.233  14.180  0.00  0.00    +0.066 C 
ATOM     22  C   UNL     1      15.738  12.972  12.871  0.00  0.00    -0.064 C 
ATOM     23  N   UNL     1      15.822  11.466  12.618  0.00  0.00    +0.379 N 
ATOM     24  C   UNL     1      16.536  11.220  11.356  0.00  0.00    -0.096 C 
ATOM     25  H   UNL     1      14.781  11.085  12.497  0.00  0.00    -0.082 HD
ATOM     26  C   UNL     1      16.443  10.745  13.806  0.00  0.00    -0.064 C 
ATOM     27  C   UNL     1      15.645  11.035  15.107  0.00  0.00    +0.066 C 
ENDBRANCH  19  20
ENDBRANCH  18  19
ENDBRANCH  14  15
ENDBRANCH  12  13
TORSDOF 6
ENDMDL
MODEL 3
REMARK VINA RESULT:      -8.1      1.437      2.291
REMARK  Name = C:\Users\Docking\Desktop\test protocol\1iep_ligandH.pdb
REMARK  8 active torsions:
REMARK  status: ('A' for Active; 'I' for Inactive)
REMARK    1  A    between atoms: _5  and  _11
REMARK    2  A    between atoms: _19  and  _21
REMARK    3  A    between atoms: _22  and  _66
REMARK    4  A    between atoms: _27  and  _30
REMARK    5  A    between atoms: _32  and  _33
REMARK    6  A    between atoms: _38  and  _43
REMARK    7  A    between atoms: _43  and  _46
REMARK    8  A    between atoms: _53  and  _55
REMARK                            x       y       z     vdW  Elec       q    Type
REMARK                         _______ _______ _______ _____ _____    ______ ____
ROOT
ATOM     10  C   UNL     1      15.211   7.562  25.434  0.00  0.00    +0.038 A 
ATOM     11  C   UNL     1      14.961   8.395  24.314  0.00  0.00    +0.047 A 
ATOM     12  C   UNL     1      15.934   8.526  23.241  0.00  0.00    +0.035 A 
ATOM     32  C   UNL     1      17.152   7.791  23.340  0.00  0.00    +0.024 A 
ATOM     33  C   UNL     1      17.423   6.941  24.472  0.00  0.00    +0.007 A 
ATOM     34  C   UNL     1      16.468   6.809  25.534  0.00  0.00    -0.029 A 
ATOM     35  C   UNL     1      16.815   5.888  26.727  0.00  0.00    +0.045 C 
ENDROOT
BRANCH  10   9
ATOM      4  C   UNL     1      11.337   5.528  27.406  0.00  0.00    +0.077 A 
ATOM      5  C   UNL     1      11.219   4.578  26.338  0.00  0.00    +0.048 A 
ATOM      6  C   UNL     1      12.170   4.651  25.296  0.00  0.00    +0.116 A 
ATOM      7  N   UNL     1      13.163   5.607  25.331  0.00  0.00    -0.223 NA
ATOM      8  C   UNL     1      13.247   6.509  26.376  0.00  0.00    +0.220 A 
ATOM      9  N   UNL     1      14.242   7.473  26.435  0.00  0.00    -0.283 N 
ATOM     36  H   UNL     1      14.266   8.125  27.219  0.00  0.00    +0.155 HD
ATOM     37  N   UNL     1      12.350   6.460  27.382  0.00  0.00    -0.214 NA
BRANCH   4   3
ATOM      1  C   UNL     1       8.108   5.557  29.614  0.00  0.00    +0.020 A 
ATOM      2  C   UNL     1       8.960   5.507  28.448  0.00  0.00    +0.013 A 
ATOM      3  C   UNL     1      10.409   5.575  28.580  0.00  0.00    +0.019 A 
ATOM     38  C   UNL     1      10.970   5.694  29.918  0.00  0.00    +0.120 A 
ATOM     39  N   UNL     1      10.126   5.741  31.022  0.00  0.00    -0.263 NA
ATOM     40  C   UNL     1       8.729   5.678  30.907  0.00  0.00    +0.111 A 
ENDBRANCH   4   3
ENDBRANCH  10   9
BRANCH  12  13
ATOM     13  N   UNL     1      15.738   9.363  22.083  0.00  0.00    -0.281 N 
ATOM     14  C   UNL     1      16.451  10.494  21.719  0.00  0.00    +0.248 C 
ATOM     30  O   UNL     1      17.233  11.083  22.451  0.00  0.00    -0.270 OA
ATOM     31  H   UNL     1      14.983   9.088  21.455  0.00  0.00    +0.155 HD
BRANCH  14  15
ATOM     15  C   UNL     1      16.257  11.060  20.350  0.00  0.00    +0.037 A 
ATOM     16  C   UNL     1      14.973  10.943  19.654  0.00  0.00    +0.013 A 
ATOM     17  C   UNL     1      14.818  11.483  18.327  0.00  0.00    +0.005 A 
ATOM     18  C   UNL     1      15.951  12.148  17.687  0.00  0.00    -0.033 A 
ATOM     28  C   UNL     1      17.212  12.254  18.402  0.00  0.00    +0.005 A 
ATOM     29  C   UNL     1      17.368  11.725  19.703  0.00  0.00    +0.013 A 
BRANCH  18  19
ATOM     19  C   UNL     1      15.882  12.735  16.265  0.00  0.00    +0.119 C 
BRANCH  19  20
ATOM     20  N   UNL     1      16.263  14.169  16.098  0.00  0.00    -0.302 NA
ATOM     21  C   UNL     1      15.263  15.112  16.773  0.00  0.00    +0.066 C 
ATOM     22  C   UNL     1      15.689  16.607  16.608  0.00  0.00    -0.064 C 
ATOM     23  N   UNL     1      15.823  16.935  15.120  0.00  0.00    +0.379 N 
ATOM     24  C   UNL     1      16.168  18.355  14.959  0.00  0.00    -0.096 C 
ATOM     25  H   UNL     1      14.827  16.772  14.647  0.00  0.00    -0.082 HD
ATOM     26  C   UNL     1      16.814  16.000  14.440  0.00  0.00    -0.064 C 
ATOM     27  C   UNL     1      16.397  14.516  14.635  0.00  0.00    +0.066 C 
ENDBRANCH  19  20
ENDBRANCH  18  19
ENDBRANCH  14  15
ENDBRANCH  12  13
TORSDOF 6
ENDMDL
MODEL 4
REMARK VINA RESULT:      -8.1      2.083      2.786
REMARK  Name = C:\Users\Docking\Desktop\test protocol\1iep_ligandH.pdb
REMARK  8 active torsions:
REMARK  status: ('A' for Active; 'I' for Inactive)
REMARK    1  A    between atoms: _5  and  _11
REMARK    2  A    between atoms: _19  and  _21
REMARK    3  A    between atoms: _22  and  _66
REMARK    4  A    between atoms: _27  and  _30
REMARK    5  A    between atoms: _32  and  _33
REMARK    6  A    between atoms: _38  and  _43
REMARK    7  A    between atoms: _43  and  _46
REMARK    8  A    between atoms: _53  and  _55
REMARK                            x       y       z     vdW  Elec       q    Type
REMARK                         _______ _______ _______ _____ _____    ______ ____
ROOT
ATOM     10  C   UNL     1      13.966   6.938  26.015  0.00  0.00    +0.038 A 
ATOM     11  C   UNL     1      14.065   7.864  24.945  0.00  0.00    +0.047 A 
ATOM     12  C   UNL     1      15.354   8.388  24.520  0.00  0.00    +0.035 A 
ATOM     32  C   UNL     1      16.522   7.945  25.206  0.00  0.00    +0.024 A 
ATOM     33  C   UNL     1      16.440   7.006  26.296  0.00  0.00    +0.007 A 
ATOM     34  C   UNL     1      15.171   6.488  26.722  0.00  0.00    -0.029 A 
ATOM     35  C   UNL     1      15.142   5.488  27.901  0.00  0.00    +0.045 C 
ENDROOT
BRANCH  10   9
ATOM      4  C   UNL     1      10.388   3.752  25.723  0.00  0.00    +0.077 A 
ATOM      5  C   UNL     1      11.082   2.975  24.737  0.00  0.00    +0.048 A 
ATOM      6  C   UNL     1      12.354   3.433  24.327  0.00  0.00    +0.116 A 
ATOM      7  N   UNL     1      12.883   4.584  24.869  0.00  0.00    -0.223 NA
ATOM      8  C   UNL     1      12.187   5.311  25.817  0.00  0.00    +0.220 A 
ATOM      9  N   UNL     1      12.703   6.467  26.382  0.00  0.00    -0.283 N 
ATOM     36  H   UNL     1      12.155   6.980  27.072  0.00  0.00    +0.155 HD
ATOM     37  N   UNL     1      10.970   4.896  26.224  0.00  0.00    -0.214 NA
BRANCH   4   3
ATOM      1  C   UNL     1       6.614   2.754  25.972  0.00  0.00    +0.020 A 
ATOM      2  C   UNL     1       7.898   3.093  25.402  0.00  0.00    +0.013 A 
ATOM      3  C   UNL     1       9.037   3.396  26.260  0.00  0.00    +0.019 A 
ATOM     38  C   UNL     1       8.841   3.347  27.701  0.00  0.00    +0.120 A 
ATOM     39  N   UNL     1       7.593   3.020  28.221  0.00  0.00    -0.263 NA
ATOM     40  C   UNL     1       6.490   2.727  27.405  0.00  0.00    +0.111 A 
ENDBRANCH   4   3
ENDBRANCH  10   9
BRANCH  12  13
ATOM     13  N   UNL     1      15.515   9.335  23.445  0.00  0.00    -0.281 N 
ATOM     14  C   UNL     1      16.432   9.298  22.408  0.00  0.00    +0.248 C 
ATOM     30  O   UNL     1      17.399   8.552  22.366  0.00  0.00    -0.270 OA
ATOM     31  H   UNL     1      14.875  10.130  23.450  0.00  0.00    +0.155 HD
BRANCH  14  15
ATOM     15  C   UNL     1      16.259  10.236  21.257  0.00  0.00    +0.037 A 
ATOM     16  C   UNL     1      15.024  10.253  20.469  0.00  0.00    +0.013 A 
ATOM     17  C   UNL     1      14.889  11.156  19.354  0.00  0.00    +0.005 A 
ATOM     18  C   UNL     1      15.994  12.051  19.020  0.00  0.00    -0.033 A 
ATOM     28  C   UNL     1      17.206  12.018  19.821  0.00  0.00    +0.005 A 
ATOM     29  C   UNL     1      17.342  11.133  20.915  0.00  0.00    +0.013 A 
BRANCH  18  19
ATOM     19  C   UNL     1      15.946  13.033  17.834  0.00  0.00    +0.119 C 
BRANCH  19  20
ATOM     20  N   UNL     1      15.548  12.480  16.505  0.00  0.00    -0.302 NA
ATOM     21  C   UNL     1      16.532  11.418  16.006  0.00  0.00    +0.066 C 
ATOM     22  C   UNL     1      16.088  10.835  14.625  0.00  0.00    -0.064 C 
ATOM     23  N   UNL     1      15.959  11.973  13.611  0.00  0.00    +0.379 N 
ATOM     24  C   UNL     1      15.598  11.421  12.297  0.00  0.00    -0.096 C 
ATOM     25  H   UNL     1      16.960  12.453  13.513  0.00  0.00    -0.082 HD
ATOM     26  C   UNL     1      14.984  13.034  14.101  0.00  0.00    -0.064 C 
ATOM     27  C   UNL     1      15.419  13.587  15.487  0.00  0.00    +0.066 C 
ENDBRANCH  19  20
ENDBRANCH  18  19
ENDBRANCH  14  15
ENDBRANCH  12  13
TORSDOF 6
ENDMDL
MODEL 5
REMARK VINA RESULT:      -8.0      1.696     13.491
REMARK  Name = C:\Users\Docking\Desktop\test protocol\1iep_ligandH.pdb
REMARK  8 active torsions:
REMARK  status: ('A' for Active; 'I' for Inactive)
REMARK    1  A    between atoms: _5  and  _11
REMARK    2  A    between atoms: _19  and  _21
REMARK    3  A    between atoms: _22  and  _66
REMARK    4  A    between atoms: _27  and  _30
REMARK    5  A    between atoms: _32  and  _33
REMARK    6  A    between atoms: _38  and  _43
REMARK    7  A    between atoms: _43  and  _46
REMARK    8  A    between atoms: _53  and  _55
REMARK                            x       y       z     vdW  Elec       q    Type
REMARK                         _______ _______ _______ _____ _____    ______ ____
ROOT
ATOM     10  C   UNL     1      16.422  12.249  18.486  0.00  0.00    +0.038 A 
ATOM     11  C   UNL     1      15.978  11.213  19.346  0.00  0.00    +0.047 A 
ATOM     12  C   UNL     1      16.400  11.156  20.737  0.00  0.00    +0.035 A 
ATOM     32  C   UNL     1      17.273  12.175  21.220  0.00  0.00    +0.024 A 
ATOM     33  C   UNL     1      17.735  13.235  20.359  0.00  0.00    +0.007 A 
ATOM     34  C   UNL     1      17.324  13.294  18.985  0.00  0.00    -0.029 A 
ATOM     35  C   UNL     1      17.855  14.451  18.107  0.00  0.00    +0.045 C 
ENDROOT
BRANCH  10   9
ATOM      4  C   UNL     1      16.953  11.122  13.851  0.00  0.00    +0.077 A 
ATOM      5  C   UNL     1      18.221  10.492  14.088  0.00  0.00    +0.048 A 
ATOM      6  C   UNL     1      18.704  10.487  15.416  0.00  0.00    +0.116 A 
ATOM      7  N   UNL     1      17.966  11.069  16.423  0.00  0.00    -0.223 NA
ATOM      8  C   UNL     1      16.748  11.669  16.160  0.00  0.00    +0.220 A 
ATOM      9  N   UNL     1      15.986  12.255  17.159  0.00  0.00    -0.283 N 
ATOM     36  H   UNL     1      15.096  12.693  16.923  0.00  0.00    +0.155 HD
ATOM     37  N   UNL     1      16.266  11.689  14.900  0.00  0.00    -0.214 NA
BRANCH   4   3
ATOM      1  C   UNL     1      14.291  11.268  10.988  0.00  0.00    +0.020 A 
ATOM      2  C   UNL     1      14.864  11.183  12.312  0.00  0.00    +0.013 A 
ATOM      3  C   UNL     1      16.308  11.206  12.502  0.00  0.00    +0.019 A 
ATOM     38  C   UNL     1      17.153  11.316  11.322  0.00  0.00    +0.120 A 
ATOM     39  N   UNL     1      16.574  11.395  10.060  0.00  0.00    -0.263 NA
ATOM     40  C   UNL     1      15.185  11.372   9.865  0.00  0.00    +0.111 A 
ENDBRANCH   4   3
ENDBRANCH  10   9
BRANCH  12  13
ATOM     13  N   UNL     1      15.989  10.124  21.655  0.00  0.00    -0.281 N 
ATOM     14  C   UNL     1      16.784   9.187  22.295  0.00  0.00    +0.248 C 
ATOM     30  O   UNL     1      17.949   8.958  22.008  0.00  0.00    -0.270 OA
ATOM     31  H   UNL     1      14.990  10.078  21.858  0.00  0.00    +0.155 HD
BRANCH  14  15
ATOM     15  C   UNL     1      16.194   8.377  23.404  0.00  0.00    +0.037 A 
ATOM     16  C   UNL     1      14.875   8.692  23.957  0.00  0.00    +0.013 A 
ATOM     17  C   UNL     1      14.337   7.906  25.039  0.00  0.00    +0.005 A 
ATOM     18  C   UNL     1      15.120   6.794  25.574  0.00  0.00    -0.033 A 
ATOM     28  C   UNL     1      16.424   6.500  25.003  0.00  0.00    +0.005 A 
ATOM     29  C   UNL     1      16.954   7.270  23.944  0.00  0.00    +0.013 A 
BRANCH  18  19
ATOM     19  C   UNL     1      14.634   5.915  26.741  0.00  0.00    +0.119 C 
BRANCH  19  20
ATOM     20  N   UNL     1      13.303   6.242  27.336  0.00  0.00    -0.302 NA
ATOM     21  C   UNL     1      13.393   6.482  28.846  0.00  0.00    +0.066 C 
ATOM     22  C   UNL     1      11.996   6.845  29.448  0.00  0.00    -0.064 C 
ATOM     23  N   UNL     1      11.003   5.725  29.136  0.00  0.00    +0.379 N 
ATOM     24  C   UNL     1       9.704   6.036  29.750  0.00  0.00    -0.096 C 
ATOM     25  H   UNL     1      11.386   4.791  29.609  0.00  0.00    -0.082 HD
ATOM     26  C   UNL     1      10.910   5.477  27.637  0.00  0.00    -0.064 C 
ATOM     27  C   UNL     1      12.308   5.146  27.044  0.00  0.00    +0.066 C 
ENDBRANCH  19  20
ENDBRANCH  18  19
ENDBRANCH  14  15
ENDBRANCH  12  13
TORSDOF 6
ENDMDL
