MODEL 1
REMARK VINA RESULT:      -8.0      0.000      0.000
REMARK  Name = C:\Users\Docking\Desktop\test protocol\1iep_ligandH.pdb
REMARK  8 active torsions:
REMARK  status: ('A' for Active; 'I' for Inactive)
REMARK    1  A    between atoms: _5  and  _11
REMARK    2  A    between atoms: _19  and  _21
REMARK    3  A    between atoms: _22  and  _66
REMARK    4  A    between atoms: _27  and  _30
REMARK    5  A    between atoms: _32  and  _33
REMARK    6  A    between atoms: _38  and  _43
REMARK    7  A    between atoms: _43  and  _46
REMARK    8  A    between atoms: _53  and  _55
REMARK                            x       y       z     vdW  Elec       q    Type
REMARK                         _______ _______ _______ _____ _____    ______ ____
ROOT
ATOM     10  C   UNL     1      14.750  23.148   7.964  0.00  0.00    +0.038 A 
ATOM     11  C   UNL     1      13.621  24.000   7.860  0.00  0.00    +0.047 A 
ATOM     12  C   UNL     1      12.336  23.620   8.427  0.00  0.00    +0.035 A 
ATOM     32  C   UNL     1      12.238  22.365   9.096  0.00  0.00    +0.024 A 
ATOM     33  C   UNL     1      13.375  21.486   9.210  0.00  0.00    +0.007 A 
ATOM     34  C   UNL     1      14.644  21.855   8.650  0.00  0.00    -0.029 A 
ATOM     35  C   UNL     1      15.828  20.870   8.796  0.00  0.00    +0.045 C 
ENDROOT
BRANCH  10   9
ATOM      4  C   UNL     1      17.658  23.825   4.206  0.00  0.00    +0.077 A 
ATOM      5  C   UNL     1      16.698  23.280   3.290  0.00  0.00    +0.048 A 
ATOM      6  C   UNL     1      15.471  22.830   3.827  0.00  0.00    +0.116 A 
ATOM      7  N   UNL     1      15.232  22.923   5.181  0.00  0.00    -0.223 NA
ATOM      8  C   UNL     1      16.180  23.453   6.037  0.00  0.00    +0.220 A 
ATOM      9  N   UNL     1      15.959  23.563   7.401  0.00  0.00    -0.283 N 
ATOM     36  H   UNL     1      16.686  23.953   8.000  0.00  0.00    +0.155 HD
ATOM     37  N   UNL     1      17.361  23.888   5.549  0.00  0.00    -0.214 NA
BRANCH   4   3
ATOM      1  C   UNL     1      20.862  26.043   3.874  0.00  0.00    +0.020 A 
ATOM      2  C   UNL     1      19.562  25.585   4.307  0.00  0.00    +0.013 A 
ATOM      3  C   UNL     1      18.999  24.345   3.790  0.00  0.00    +0.019 A 
ATOM     38  C   UNL     1      19.783  23.584   2.829  0.00  0.00    +0.120 A 
ATOM     39  N   UNL     1      21.032  24.050   2.429  0.00  0.00    -0.263 NA
ATOM     40  C   UNL     1      21.583  25.244   2.918  0.00  0.00    +0.111 A 
ENDBRANCH   4   3
ENDBRANCH  10   9
BRANCH  12  13
ATOM     13  N   UNL     1      11.153  24.440   8.346  0.00  0.00    -0.281 N 
ATOM     14  C   UNL     1      11.025  25.784   8.658  0.00  0.00    +0.248 C 
ATOM     30  O   UNL     1      11.864  26.436   9.262  0.00  0.00    -0.270 OA
ATOM     31  H   UNL     1      10.307  23.974   8.019  0.00  0.00    +0.155 HD
BRANCH  14  15
ATOM     15  C   UNL     1       9.779  26.503   8.255  0.00  0.00    +0.037 A 
ATOM     16  C   UNL     1       9.229  26.372   6.903  0.00  0.00    +0.013 A 
ATOM     17  C   UNL     1       8.035  27.090   6.535  0.00  0.00    +0.005 A 
ATOM     18  C   UNL     1       7.382  27.947   7.522  0.00  0.00    -0.033 A 
ATOM     28  C   UNL     1       7.946  28.055   8.857  0.00  0.00    +0.005 A 
ATOM     29  C   UNL     1       9.116  27.353   9.222  0.00  0.00    +0.013 A 
BRANCH  18  19
ATOM     19  C   UNL     1       6.116  28.767   7.210  0.00  0.00    +0.119 C 
BRANCH  19  20
ATOM     20  N   UNL     1       4.803  28.172   7.601  0.00  0.00    -0.302 NA
ATOM     21  C   UNL     1       4.309  27.147   6.576  0.00  0.00    +0.066 C 
ATOM     22  C   UNL     1       2.945  26.518   7.011  0.00  0.00    -0.064 C 
ATOM     23  N   UNL     1       1.913  27.631   7.205  0.00  0.00    +0.379 N 
ATOM     24  C   UNL     1       0.614  27.039   7.558  0.00  0.00    -0.096 C 
ATOM     25  H   UNL     1       1.792  28.154   6.228  0.00  0.00    -0.082 HD
ATOM     26  C   UNL     1       2.397  28.656   8.221  0.00  0.00    -0.064 C 
ATOM     27  C   UNL     1       3.767  29.253   7.793  0.00  0.00    +0.066 C 
ENDBRANCH  19  20
ENDBRANCH  18  19
ENDBRANCH  14  15
ENDBRANCH  12  13
TORSDOF 6
ENDMDL
MODEL 2
REMARK VINA RESULT:      -7.9      5.538      7.980
REMARK  Name = C:\Users\Docking\Desktop\test protocol\1iep_ligandH.pdb
REMARK  8 active torsions:
REMARK  status: ('A' for Active; 'I' for Inactive)
REMARK    1  A    between atoms: _5  and  _11
REMARK    2  A    between atoms: _19  and  _21
REMARK    3  A    between atoms: _22  and  _66
REMARK    4  A    between atoms: _27  and  _30
REMARK    5  A    between atoms: _32  and  _33
REMARK    6  A    between atoms: _38  and  _43
REMARK    7  A    between atoms: _43  and  _46
REMARK    8  A    between atoms: _53  and  _55
REMARK                            x       y       z     vdW  Elec       q    Type
REMARK                         _______ _______ _______ _____ _____    ______ ____
ROOT
ATOM     10  C   UNL     1       9.534  25.666   8.409  0.00  0.00    +0.038 A 
ATOM     11  C   UNL     1       8.160  25.933   8.174  0.00  0.00    +0.047 A 
ATOM     12  C   UNL     1       7.661  27.297   8.098  0.00  0.00    +0.035 A 
ATOM     32  C   UNL     1       8.589  28.366   8.263  0.00  0.00    +0.024 A 
ATOM     33  C   UNL     1       9.988  28.113   8.504  0.00  0.00    +0.007 A 
ATOM     34  C   UNL     1      10.486  26.770   8.582  0.00  0.00    -0.029 A 
ATOM     35  C   UNL     1      11.994  26.558   8.849  0.00  0.00    +0.045 C 
ENDROOT
BRANCH  10   9
ATOM      4  C   UNL     1      11.110  21.838  10.837  0.00  0.00    +0.077 A 
ATOM      5  C   UNL     1      11.114  22.554  12.080  0.00  0.00    +0.048 A 
ATOM      6  C   UNL     1      10.709  23.907  12.051  0.00  0.00    +0.116 A 
ATOM      7  N   UNL     1      10.332  24.491  10.861  0.00  0.00    -0.223 NA
ATOM      8  C   UNL     1      10.342  23.773   9.679  0.00  0.00    +0.220 A 
ATOM      9  N   UNL     1       9.958  24.337   8.472  0.00  0.00    -0.283 N 
ATOM     36  H   UNL     1       9.987  23.776   7.622  0.00  0.00    +0.155 HD
ATOM     37  N   UNL     1      10.725  22.479   9.681  0.00  0.00    -0.214 NA
BRANCH   4   3
ATOM      1  C   UNL     1      11.279  17.955  11.284  0.00  0.00    +0.020 A 
ATOM      2  C   UNL     1      10.857  19.327  11.447  0.00  0.00    +0.013 A 
ATOM      3  C   UNL     1      11.508  20.400  10.706  0.00  0.00    +0.019 A 
ATOM     38  C   UNL     1      12.592  20.048   9.801  0.00  0.00    +0.120 A 
ATOM     39  N   UNL     1      12.978  18.719   9.666  0.00  0.00    -0.263 NA
ATOM     40  C   UNL     1      12.360  17.678  10.375  0.00  0.00    +0.111 A 
ENDBRANCH   4   3
ENDBRANCH  10   9
BRANCH  12  13
ATOM     13  N   UNL     1       6.277  27.629   7.870  0.00  0.00    -0.281 N 
ATOM     14  C   UNL     1       5.546  27.477   6.703  0.00  0.00    +0.248 C 
ATOM     30  O   UNL     1       6.033  27.230   5.609  0.00  0.00    -0.270 OA
ATOM     31  H   UNL     1       5.774  28.023   8.665  0.00  0.00    +0.155 HD
BRANCH  14  15
ATOM     15  C   UNL     1       4.061  27.638   6.755  0.00  0.00    +0.037 A 
ATOM     16  C   UNL     1       3.184  26.504   7.058  0.00  0.00    +0.013 A 
ATOM     17  C   UNL     1       1.754  26.683   7.085  0.00  0.00    +0.005 A 
ATOM     18  C   UNL     1       1.192  28.003   6.809  0.00  0.00    -0.033 A 
ATOM     28  C   UNL     1       2.085  29.111   6.516  0.00  0.00    +0.005 A 
ATOM     29  C   UNL     1       3.487  28.940   6.488  0.00  0.00    +0.013 A 
BRANCH  18  19
ATOM     19  C   UNL     1      -0.323  28.280   6.796  0.00  0.00    +0.119 C 
BRANCH  19  20
ATOM     20  N   UNL     1      -1.037  28.241   8.107  0.00  0.00    -0.302 NA
ATOM     21  C   UNL     1      -0.262  28.974   9.205  0.00  0.00    +0.066 C 
ATOM     22  C   UNL     1      -1.034  28.942  10.565  0.00  0.00    -0.064 C 
ATOM     23  N   UNL     1      -1.298  27.490  10.965  0.00  0.00    +0.379 N 
ATOM     24  C   UNL     1      -1.972  27.455  12.270  0.00  0.00    -0.096 C 
ATOM     25  H   UNL     1      -0.310  26.986  11.080  0.00  0.00    -0.082 HD
ATOM     26  C   UNL     1      -2.066  26.753   9.876  0.00  0.00    -0.064 C 
ATOM     27  C   UNL     1      -1.304  26.816   8.523  0.00  0.00    +0.066 C 
ENDBRANCH  19  20
ENDBRANCH  18  19
ENDBRANCH  14  15
ENDBRANCH  12  13
TORSDOF 6
ENDMDL
MODEL 3
REMARK VINA RESULT:      -7.8     16.845     22.524
REMARK  Name = C:\Users\Docking\Desktop\test protocol\1iep_ligandH.pdb
REMARK  8 active torsions:
REMARK  status: ('A' for Active; 'I' for Inactive)
REMARK    1  A    between atoms: _5  and  _11
REMARK    2  A    between atoms: _19  and  _21
REMARK    3  A    between atoms: _22  and  _66
REMARK    4  A    between atoms: _27  and  _30
REMARK    5  A    between atoms: _32  and  _33
REMARK    6  A    between atoms: _38  and  _43
REMARK    7  A    between atoms: _43  and  _46
REMARK    8  A    between atoms: _53  and  _55
REMARK                            x       y       z     vdW  Elec       q    Type
REMARK                         _______ _______ _______ _____ _____    ______ ____
ROOT
ATOM     10  C   UNL     1      25.285  34.471   0.645  0.00  0.00    +0.038 A 
ATOM     11  C   UNL     1      25.918  35.187  -0.402  0.00  0.00    +0.047 A 
ATOM     12  C   UNL     1      25.864  34.716  -1.777  0.00  0.00    +0.035 A 
ATOM     32  C   UNL     1      25.152  33.511  -2.050  0.00  0.00    +0.024 A 
ATOM     33  C   UNL     1      24.504  32.769  -0.997  0.00  0.00    +0.007 A 
ATOM     34  C   UNL     1      24.557  33.228   0.361  0.00  0.00    -0.029 A 
ATOM     35  C   UNL     1      23.849  32.389   1.450  0.00  0.00    +0.045 C 
ENDROOT
BRANCH  10   9
ATOM      4  C   UNL     1      24.755  37.981   3.876  0.00  0.00    +0.077 A 
ATOM      5  C   UNL     1      24.296  38.907   2.881  0.00  0.00    +0.048 A 
ATOM      6  C   UNL     1      24.218  38.443   1.549  0.00  0.00    +0.116 A 
ATOM      7  N   UNL     1      24.574  37.147   1.245  0.00  0.00    -0.223 NA
ATOM      8  C   UNL     1      25.014  36.280   2.228  0.00  0.00    +0.220 A 
ATOM      9  N   UNL     1      25.369  34.969   1.947  0.00  0.00    -0.283 N 
ATOM     36  H   UNL     1      25.696  34.363   2.699  0.00  0.00    +0.155 HD
ATOM     37  N   UNL     1      25.099  36.699   3.508  0.00  0.00    -0.214 NA
BRANCH   4   3
ATOM      1  C   UNL     1      25.246  37.698   7.746  0.00  0.00    +0.020 A 
ATOM      2  C   UNL     1      25.123  37.317   6.358  0.00  0.00    +0.013 A 
ATOM      3  C   UNL     1      24.889  38.321   5.328  0.00  0.00    +0.019 A 
ATOM     38  C   UNL     1      24.782  39.713   5.738  0.00  0.00    +0.120 A 
ATOM     39  N   UNL     1      24.903  40.050   7.083  0.00  0.00    -0.263 NA
ATOM     40  C   UNL     1      25.127  39.093   8.083  0.00  0.00    +0.111 A 
ENDBRANCH   4   3
ENDBRANCH  10   9
BRANCH  12  13
ATOM     13  N   UNL     1      26.494  35.396  -2.881  0.00  0.00    -0.281 N 
ATOM     14  C   UNL     1      27.515  34.935  -3.695  0.00  0.00    +0.248 C 
ATOM     30  O   UNL     1      28.191  33.944  -3.461  0.00  0.00    -0.270 OA
ATOM     31  H   UNL     1      26.145  36.333  -3.087  0.00  0.00    +0.155 HD
BRANCH  14  15
ATOM     15  C   UNL     1      27.843  35.691  -4.941  0.00  0.00    +0.037 A 
ATOM     16  C   UNL     1      27.976  35.009  -6.231  0.00  0.00    +0.013 A 
ATOM     17  C   UNL     1      28.309  35.761  -7.416  0.00  0.00    +0.005 A 
ATOM     18  C   UNL     1      28.511  37.204  -7.315  0.00  0.00    -0.033 A 
ATOM     28  C   UNL     1      28.367  37.856  -6.024  0.00  0.00    +0.005 A 
ATOM     29  C   UNL     1      28.042  37.123  -4.861  0.00  0.00    +0.013 A 
BRANCH  18  19
ATOM     19  C   UNL     1      28.889  38.082  -8.523  0.00  0.00    +0.119 C 
BRANCH  19  20
ATOM     20  N   UNL     1      27.777  38.555  -9.399  0.00  0.00    -0.302 NA
ATOM     21  C   UNL     1      26.475  38.755  -8.619  0.00  0.00    +0.066 C 
ATOM     22  C   UNL     1      25.328  39.272  -9.547  0.00  0.00    -0.064 C 
ATOM     23  N   UNL     1      25.124  38.286 -10.698  0.00  0.00    +0.379 N 
ATOM     24  C   UNL     1      24.007  38.739 -11.540  0.00  0.00    -0.096 C 
ATOM     25  H   UNL     1      24.836  37.304 -10.255  0.00  0.00    -0.082 HD
ATOM     26  C   UNL     1      26.414  38.079 -11.478  0.00  0.00    -0.064 C 
ATOM     27  C   UNL     1      27.555  37.594 -10.541  0.00  0.00    +0.066 C 
ENDBRANCH  19  20
ENDBRANCH  18  19
ENDBRANCH  14  15
ENDBRANCH  12  13
TORSDOF 6
ENDMDL
MODEL 4
REMARK VINA RESULT:      -7.8      3.763      7.671
REMARK  Name = C:\Users\Docking\Desktop\test protocol\1iep_ligandH.pdb
REMARK  8 active torsions:
REMARK  status: ('A' for Active; 'I' for Inactive)
REMARK    1  A    between atoms: _5  and  _11
REMARK    2  A    between atoms: _19  and  _21
REMARK    3  A    between atoms: _22  and  _66
REMARK    4  A    between atoms: _27  and  _30
REMARK    5  A    between atoms: _32  and  _33
REMARK    6  A    between atoms: _38  and  _43
REMARK    7  A    between atoms: _43  and  _46
REMARK    8  A    between atoms: _53  and  _55
REMARK                            x       y       z     vdW  Elec       q    Type
REMARK                         _______ _______ _______ _____ _____    ______ ____
ROOT
ATOM     10  C   UNL     1      20.226  25.521   3.594  0.00  0.00    +0.038 A 
ATOM     11  C   UNL     1      18.960  25.333   4.205  0.00  0.00    +0.047 A 
ATOM     12  C   UNL     1      18.291  24.042   4.168  0.00  0.00    +0.035 A 
ATOM     32  C   UNL     1      18.941  22.963   3.500  0.00  0.00    +0.024 A 
ATOM     33  C   UNL     1      20.227  23.137   2.872  0.00  0.00    +0.007 A 
ATOM     34  C   UNL     1      20.891  24.409   2.904  0.00  0.00    -0.029 A 
ATOM     35  C   UNL     1      22.265  24.539   2.208  0.00  0.00    +0.045 C 
ENDROOT
BRANCH  10   9
ATOM      4  C   UNL     1      21.415  29.748   1.657  0.00  0.00    +0.077 A 
ATOM      5  C   UNL     1      20.820  29.406   0.398  0.00  0.00    +0.048 A 
ATOM      6  C   UNL     1      20.224  28.129   0.287  0.00  0.00    +0.116 A 
ATOM      7  N   UNL     1      20.229  27.268   1.363  0.00  0.00    -0.223 NA
ATOM      8  C   UNL     1      20.813  27.629   2.563  0.00  0.00    +0.220 A 
ATOM      9  N   UNL     1      20.823  26.782   3.660  0.00  0.00    -0.283 N 
ATOM     36  H   UNL     1      21.271  27.082   4.525  0.00  0.00    +0.155 HD
ATOM     37  N   UNL     1      21.390  28.842   2.693  0.00  0.00    -0.214 NA
BRANCH   4   3
ATOM      1  C   UNL     1      23.662  32.934   1.333  0.00  0.00    +0.020 A 
ATOM      2  C   UNL     1      23.049  31.663   1.022  0.00  0.00    +0.013 A 
ATOM      3  C   UNL     1      22.081  31.061   1.930  0.00  0.00    +0.019 A 
ATOM     38  C   UNL     1      21.752  31.777   3.154  0.00  0.00    +0.120 A 
ATOM     39  N   UNL     1      22.360  32.998   3.428  0.00  0.00    -0.263 NA
ATOM     40  C   UNL     1      23.294  33.586   2.562  0.00  0.00    +0.111 A 
ENDBRANCH   4   3
ENDBRANCH  10   9
BRANCH  12  13
ATOM     13  N   UNL     1      17.002  23.793   4.764  0.00  0.00    -0.281 N 
ATOM     14  C   UNL     1      16.708  22.990   5.854  0.00  0.00    +0.248 C 
ATOM     30  O   UNL     1      17.487  22.192   6.354  0.00  0.00    -0.270 OA
ATOM     31  H   UNL     1      16.209  24.266   4.330  0.00  0.00    +0.155 HD
BRANCH  14  15
ATOM     15  C   UNL     1      15.349  23.077   6.470  0.00  0.00    +0.037 A 
ATOM     16  C   UNL     1      14.176  23.446   5.673  0.00  0.00    +0.013 A 
ATOM     17  C   UNL     1      12.879  23.539   6.296  0.00  0.00    +0.005 A 
ATOM     18  C   UNL     1      12.749  23.261   7.724  0.00  0.00    -0.033 A 
ATOM     28  C   UNL     1      13.928  22.893   8.490  0.00  0.00    +0.005 A 
ATOM     29  C   UNL     1      15.201  22.802   7.883  0.00  0.00    +0.013 A 
BRANCH  18  19
ATOM     19  C   UNL     1      11.408  23.357   8.475  0.00  0.00    +0.119 C 
BRANCH  19  20
ATOM     20  N   UNL     1      10.601  24.599   8.280  0.00  0.00    -0.302 NA
ATOM     21  C   UNL     1      11.374  25.855   8.691  0.00  0.00    +0.066 C 
ATOM     22  C   UNL     1      10.524  27.147   8.459  0.00  0.00    -0.064 C 
ATOM     23  N   UNL     1       9.213  27.038   9.239  0.00  0.00    +0.379 N 
ATOM     24  C   UNL     1       8.437  28.276   9.069  0.00  0.00    -0.096 C 
ATOM     25  H   UNL     1       9.469  26.945  10.320  0.00  0.00    -0.082 HD
ATOM     26  C   UNL     1       8.439  25.790   8.839  0.00  0.00    -0.064 C 
ATOM     27  C   UNL     1       9.304  24.514   9.045  0.00  0.00    +0.066 C 
ENDBRANCH  19  20
ENDBRANCH  18  19
ENDBRANCH  14  15
ENDBRANCH  12  13
TORSDOF 6
ENDMDL
MODEL 5
REMARK VINA RESULT:      -7.7      4.516      7.901
REMARK  Name = C:\Users\Docking\Desktop\test protocol\1iep_ligandH.pdb
REMARK  8 active torsions:
REMARK  status: ('A' for Active; 'I' for Inactive)
REMARK    1  A    between atoms: _5  and  _11
REMARK    2  A    between atoms: _19  and  _21
REMARK    3  A    between atoms: _22  and  _66
REMARK    4  A    between atoms: _27  and  _30
REMARK    5  A    between atoms: _32  and  _33
REMARK    6  A    between atoms: _38  and  _43
REMARK    7  A    between atoms: _43  and  _46
REMARK    8  A    between atoms: _53  and  _55
REMARK                            x       y       z     vdW  Elec       q    Type
REMARK                         _______ _______ _______ _____ _____    ______ ____
ROOT
ATOM     10  C   UNL     1      20.237  25.540   3.634  0.00  0.00    +0.038 A 
ATOM     11  C   UNL     1      18.913  25.405   4.125  0.00  0.00    +0.047 A 
ATOM     12  C   UNL     1      18.222  24.126   4.085  0.00  0.00    +0.035 A 
ATOM     32  C   UNL     1      18.911  23.003   3.540  0.00  0.00    +0.024 A 
ATOM     33  C   UNL     1      20.256  23.122   3.036  0.00  0.00    +0.007 A 
ATOM     34  C   UNL     1      20.942  24.382   3.071  0.00  0.00    -0.029 A 
ATOM     35  C   UNL     1      22.382  24.453   2.511  0.00  0.00    +0.045 C 
ENDROOT
BRANCH  10   9
ATOM      4  C   UNL     1      21.474  29.752   1.693  0.00  0.00    +0.077 A 
ATOM      5  C   UNL     1      20.864  29.419   0.438  0.00  0.00    +0.048 A 
ATOM      6  C   UNL     1      20.250  28.151   0.330  0.00  0.00    +0.116 A 
ATOM      7  N   UNL     1      20.250  27.289   1.405  0.00  0.00    -0.223 NA
ATOM      8  C   UNL     1      20.848  27.640   2.601  0.00  0.00    +0.220 A 
ATOM      9  N   UNL     1      20.853  26.792   3.698  0.00  0.00    -0.283 N 
ATOM     36  H   UNL     1      21.311  27.085   4.560  0.00  0.00    +0.155 HD
ATOM     37  N   UNL     1      21.443  28.845   2.729  0.00  0.00    -0.214 NA
BRANCH   4   3
ATOM      1  C   UNL     1      23.713  32.938   1.326  0.00  0.00    +0.020 A 
ATOM      2  C   UNL     1      23.077  31.678   1.017  0.00  0.00    +0.013 A 
ATOM      3  C   UNL     1      22.160  31.055   1.963  0.00  0.00    +0.019 A 
ATOM     38  C   UNL     1      21.906  31.738   3.223  0.00  0.00    +0.120 A 
ATOM     39  N   UNL     1      22.535  32.949   3.493  0.00  0.00    -0.263 NA
ATOM     40  C   UNL     1      23.420  33.558   2.591  0.00  0.00    +0.111 A 
ENDBRANCH   4   3
ENDBRANCH  10   9
BRANCH  12  13
ATOM     13  N   UNL     1      16.875  23.931   4.561  0.00  0.00    -0.281 N 
ATOM     14  C   UNL     1      16.465  23.288   5.717  0.00  0.00    +0.248 C 
ATOM     30  O   UNL     1      17.189  22.593   6.415  0.00  0.00    -0.270 OA
ATOM     31  H   UNL     1      16.134  24.313   3.973  0.00  0.00    +0.155 HD
BRANCH  14  15
ATOM     15  C   UNL     1      15.043  23.426   6.154  0.00  0.00    +0.037 A 
ATOM     16  C   UNL     1      13.973  23.688   5.188  0.00  0.00    +0.013 A 
ATOM     17  C   UNL     1      12.611  23.834   5.639  0.00  0.00    +0.005 A 
ATOM     18  C   UNL     1      12.312  23.715   7.064  0.00  0.00    -0.033 A 
ATOM     28  C   UNL     1      13.392  23.448   8.000  0.00  0.00    +0.005 A 
ATOM     29  C   UNL     1      14.727  23.306   7.562  0.00  0.00    +0.013 A 
BRANCH  18  19
ATOM     19  C   UNL     1      10.891  23.876   7.636  0.00  0.00    +0.119 C 
BRANCH  19  20
ATOM     20  N   UNL     1      10.482  22.940   8.726  0.00  0.00    -0.302 NA
ATOM     21  C   UNL     1      10.249  21.519   8.205  0.00  0.00    +0.066 C 
ATOM     22  C   UNL     1       9.844  20.548   9.361  0.00  0.00    -0.064 C 
ATOM     23  N   UNL     1       8.591  21.082  10.057  0.00  0.00    +0.379 N 
ATOM     24  C   UNL     1       8.174  20.142  11.107  0.00  0.00    -0.096 C 
ATOM     25  H   UNL     1       7.776  21.125   9.298  0.00  0.00    -0.082 HD
ATOM     26  C   UNL     1       8.813  22.496  10.575  0.00  0.00    -0.064 C 
ATOM     27  C   UNL     1       9.244  23.446   9.423  0.00  0.00    +0.066 C 
ENDBRANCH  19  20
ENDBRANCH  18  19
ENDBRANCH  14  15
ENDBRANCH  12  13
TORSDOF 6
ENDMDL
