MODEL 1
REMARK VINA RESULT:      -7.1      0.000      0.000
REMARK  Name = C:\Users\Docking\Desktop\test protocol\1iep_ligandH.pdb
REMARK  8 active torsions:
REMARK  status: ('A' for Active; 'I' for Inactive)
REMARK    1  A    between atoms: _5  and  _11
REMARK    2  A    between atoms: _19  and  _21
REMARK    3  A    between atoms: _22  and  _66
REMARK    4  A    between atoms: _27  and  _30
REMARK    5  A    between atoms: _32  and  _33
REMARK    6  A    between atoms: _38  and  _43
REMARK    7  A    between atoms: _43  and  _46
REMARK    8  A    between atoms: _53  and  _55
REMARK                            x       y       z     vdW  Elec       q    Type
REMARK                         _______ _______ _______ _____ _____    ______ ____
ROOT
ATOM     10  C   UNL     1       3.710  24.672  56.664  0.00  0.00    +0.038 A 
ATOM     11  C   UNL     1       2.981  25.229  55.583  0.00  0.00    +0.047 A 
ATOM     12  C   UNL     1       1.550  25.472  55.685  0.00  0.00    +0.035 A 
ATOM     32  C   UNL     1       0.894  25.137  56.906  0.00  0.00    +0.024 A 
ATOM     33  C   UNL     1       1.619  24.568  58.015  0.00  0.00    +0.007 A 
ATOM     34  C   UNL     1       3.030  24.325  57.918  0.00  0.00    -0.029 A 
ATOM     35  C   UNL     1       3.756  23.707  59.136  0.00  0.00    +0.045 C 
ENDROOT
BRANCH  10   9
ATOM      4  C   UNL     1       8.289  25.940  57.339  0.00  0.00    +0.077 A 
ATOM      5  C   UNL     1       7.917  27.140  58.032  0.00  0.00    +0.048 A 
ATOM      6  C   UNL     1       6.536  27.397  58.188  0.00  0.00    +0.116 A 
ATOM      7  N   UNL     1       5.606  26.513  57.684  0.00  0.00    -0.223 NA
ATOM      8  C   UNL     1       6.000  25.366  57.019  0.00  0.00    +0.220 A 
ATOM      9  N   UNL     1       5.082  24.460  56.511  0.00  0.00    -0.283 N 
ATOM     36  H   UNL     1       5.412  23.629  56.020  0.00  0.00    +0.155 HD
ATOM     37  N   UNL     1       7.312  25.099  56.856  0.00  0.00    -0.214 NA
BRANCH   4   3
ATOM      1  C   UNL     1      12.148  25.432  57.733  0.00  0.00    +0.020 A 
ATOM      2  C   UNL     1      10.795  25.855  58.013  0.00  0.00    +0.013 A 
ATOM      3  C   UNL     1       9.708  25.528  57.098  0.00  0.00    +0.019 A 
ATOM     38  C   UNL     1      10.027  24.765  55.900  0.00  0.00    +0.120 A 
ATOM     39  N   UNL     1      11.340  24.373  55.657  0.00  0.00    -0.263 NA
ATOM     40  C   UNL     1      12.394  24.684  56.529  0.00  0.00    +0.111 A 
ENDBRANCH   4   3
ENDBRANCH  10   9
BRANCH  12  13
ATOM     13  N   UNL     1       0.756  26.028  54.618  0.00  0.00    -0.281 N 
ATOM     14  C   UNL     1      -0.207  25.391  53.852  0.00  0.00    +0.248 C 
ATOM     30  O   UNL     1      -0.381  24.181  53.826  0.00  0.00    -0.270 OA
ATOM     31  H   UNL     1       0.924  27.010  54.401  0.00  0.00    +0.155 HD
BRANCH  14  15
ATOM     15  C   UNL     1      -1.095  26.215  52.977  0.00  0.00    +0.037 A 
ATOM     16  C   UNL     1      -0.725  26.524  51.594  0.00  0.00    +0.013 A 
ATOM     17  C   UNL     1      -1.592  27.336  50.777  0.00  0.00    +0.005 A 
ATOM     18  C   UNL     1      -2.840  27.843  51.342  0.00  0.00    -0.033 A 
ATOM     28  C   UNL     1      -3.185  27.517  52.716  0.00  0.00    +0.005 A 
ATOM     29  C   UNL     1      -2.337  26.723  53.520  0.00  0.00    +0.013 A 
BRANCH  18  19
ATOM     19  C   UNL     1      -3.816  28.734  50.551  0.00  0.00    +0.119 C 
BRANCH  19  20
ATOM     20  N   UNL     1      -3.241  29.576  49.460  0.00  0.00    -0.302 NA
ATOM     21  C   UNL     1      -3.523  31.066  49.675  0.00  0.00    +0.066 C 
ATOM     22  C   UNL     1      -2.895  31.934  48.537  0.00  0.00    -0.064 C 
ATOM     23  N   UNL     1      -3.440  31.470  47.185  0.00  0.00    +0.379 N 
ATOM     24  C   UNL     1      -2.896  32.322  46.118  0.00  0.00    -0.096 C 
ATOM     25  H   UNL     1      -4.545  31.610  47.200  0.00  0.00    -0.082 HD
ATOM     26  C   UNL     1      -3.165  29.989  46.964  0.00  0.00    -0.064 C 
ATOM     27  C   UNL     1      -3.768  29.137  48.116  0.00  0.00    +0.066 C 
ENDBRANCH  19  20
ENDBRANCH  18  19
ENDBRANCH  14  15
ENDBRANCH  12  13
TORSDOF 6
ENDMDL
MODEL 2
REMARK VINA RESULT:      -7.0     23.098     25.956
REMARK  Name = C:\Users\Docking\Desktop\test protocol\1iep_ligandH.pdb
REMARK  8 active torsions:
REMARK  status: ('A' for Active; 'I' for Inactive)
REMARK    1  A    between atoms: _5  and  _11
REMARK    2  A    between atoms: _19  and  _21
REMARK    3  A    between atoms: _22  and  _66
REMARK    4  A    between atoms: _27  and  _30
REMARK    5  A    between atoms: _32  and  _33
REMARK    6  A    between atoms: _38  and  _43
REMARK    7  A    between atoms: _43  and  _46
REMARK    8  A    between atoms: _53  and  _55
REMARK                            x       y       z     vdW  Elec       q    Type
REMARK                         _______ _______ _______ _____ _____    ______ ____
ROOT
ATOM     10  C   UNL     1      19.473  43.247  53.440  0.00  0.00    +0.038 A 
ATOM     11  C   UNL     1      19.713  43.637  52.098  0.00  0.00    +0.047 A 
ATOM     12  C   UNL     1      18.673  43.531  51.086  0.00  0.00    +0.035 A 
ATOM     32  C   UNL     1      17.399  43.026  51.477  0.00  0.00    +0.024 A 
ATOM     33  C   UNL     1      17.138  42.624  52.837  0.00  0.00    +0.007 A 
ATOM     34  C   UNL     1      18.161  42.723  53.839  0.00  0.00    -0.029 A 
ATOM     35  C   UNL     1      17.828  42.271  55.279  0.00  0.00    +0.045 C 
ENDROOT
BRANCH  10   9
ATOM      4  C   UNL     1      21.741  45.587  56.964  0.00  0.00    +0.077 A 
ATOM      5  C   UNL     1      20.800  46.669  56.931  0.00  0.00    +0.048 A 
ATOM      6  C   UNL     1      19.751  46.589  55.987  0.00  0.00    +0.116 A 
ATOM      7  N   UNL     1      19.660  45.502  55.145  0.00  0.00    -0.223 NA
ATOM      8  C   UNL     1      20.585  44.476  55.202  0.00  0.00    +0.220 A 
ATOM      9  N   UNL     1      20.508  43.369  54.370  0.00  0.00    -0.283 N 
ATOM     36  H   UNL     1      21.214  42.637  54.438  0.00  0.00    +0.155 HD
ATOM     37  N   UNL     1      21.597  44.530  56.093  0.00  0.00    -0.214 NA
BRANCH   4   3
ATOM      1  C   UNL     1      24.991  44.439  58.814  0.00  0.00    +0.020 A 
ATOM      2  C   UNL     1      23.888  44.452  57.881  0.00  0.00    +0.013 A 
ATOM      3  C   UNL     1      22.902  45.525  57.907  0.00  0.00    +0.019 A 
ATOM     38  C   UNL     1      23.063  46.580  58.897  0.00  0.00    +0.120 A 
ATOM     39  N   UNL     1      24.135  46.541  59.783  0.00  0.00    -0.263 NA
ATOM     40  C   UNL     1      25.088  45.512  59.769  0.00  0.00    +0.111 A 
ENDBRANCH   4   3
ENDBRANCH  10   9
BRANCH  12  13
ATOM     13  N   UNL     1      18.860  43.905  49.706  0.00  0.00    -0.281 N 
ATOM     14  C   UNL     1      19.270  45.129  49.203  0.00  0.00    +0.248 C 
ATOM     30  O   UNL     1      19.333  46.159  49.858  0.00  0.00    -0.270 OA
ATOM     31  H   UNL     1      18.667  43.179  49.016  0.00  0.00    +0.155 HD
BRANCH  14  15
ATOM     15  C   UNL     1      19.652  45.226  47.761  0.00  0.00    +0.037 A 
ATOM     16  C   UNL     1      20.300  46.426  47.226  0.00  0.00    +0.013 A 
ATOM     17  C   UNL     1      20.642  46.500  45.828  0.00  0.00    +0.005 A 
ATOM     18  C   UNL     1      20.338  45.369  44.955  0.00  0.00    -0.033 A 
ATOM     28  C   UNL     1      19.699  44.189  45.513  0.00  0.00    +0.005 A 
ATOM     29  C   UNL     1      19.361  44.113  46.883  0.00  0.00    +0.013 A 
BRANCH  18  19
ATOM     19  C   UNL     1      20.648  45.369  43.446  0.00  0.00    +0.119 C 
BRANCH  19  20
ATOM     20  N   UNL     1      19.487  45.301  42.509  0.00  0.00    -0.302 NA
ATOM     21  C   UNL     1      18.258  46.028  43.064  0.00  0.00    +0.066 C 
ATOM     22  C   UNL     1      17.060  45.967  42.061  0.00  0.00    -0.064 C 
ATOM     23  N   UNL     1      16.732  44.505  41.752  0.00  0.00    +0.379 N 
ATOM     24  C   UNL     1      15.569  44.443  40.855  0.00  0.00    -0.096 C 
ATOM     25  H   UNL     1      16.446  44.013  42.711  0.00  0.00    -0.082 HD
ATOM     26  C   UNL     1      17.949  43.775  41.203  0.00  0.00    -0.064 C 
ATOM     27  C   UNL     1      19.143  43.867  42.194  0.00  0.00    +0.066 C 
ENDBRANCH  19  20
ENDBRANCH  18  19
ENDBRANCH  14  15
ENDBRANCH  12  13
TORSDOF 6
ENDMDL
MODEL 3
REMARK VINA RESULT:      -6.4     12.624     16.232
REMARK  Name = C:\Users\Docking\Desktop\test protocol\1iep_ligandH.pdb
REMARK  8 active torsions:
REMARK  status: ('A' for Active; 'I' for Inactive)
REMARK    1  A    between atoms: _5  and  _11
REMARK    2  A    between atoms: _19  and  _21
REMARK    3  A    between atoms: _22  and  _66
REMARK    4  A    between atoms: _27  and  _30
REMARK    5  A    between atoms: _32  and  _33
REMARK    6  A    between atoms: _38  and  _43
REMARK    7  A    between atoms: _43  and  _46
REMARK    8  A    between atoms: _53  and  _55
REMARK                            x       y       z     vdW  Elec       q    Type
REMARK                         _______ _______ _______ _____ _____    ______ ____
ROOT
ATOM     10  C   UNL     1       2.779  30.468  43.685  0.00  0.00    +0.038 A 
ATOM     11  C   UNL     1       3.462  31.711  43.693  0.00  0.00    +0.047 A 
ATOM     12  C   UNL     1       2.790  32.936  44.095  0.00  0.00    +0.035 A 
ATOM     32  C   UNL     1       1.421  32.859  44.487  0.00  0.00    +0.024 A 
ATOM     33  C   UNL     1       0.711  31.604  44.484  0.00  0.00    +0.007 A 
ATOM     34  C   UNL     1       1.369  30.392  44.085  0.00  0.00    -0.029 A 
ATOM     35  C   UNL     1       0.556  29.077  44.095  0.00  0.00    +0.045 C 
ENDROOT
BRANCH  10   9
ATOM      4  C   UNL     1       4.320  27.398  40.333  0.00  0.00    +0.077 A 
ATOM      5  C   UNL     1       3.665  28.124  39.283  0.00  0.00    +0.048 A 
ATOM      6  C   UNL     1       2.935  29.277  39.649  0.00  0.00    +0.116 A 
ATOM      7  N   UNL     1       2.873  29.667  40.969  0.00  0.00    -0.223 NA
ATOM      8  C   UNL     1       3.516  28.944  41.957  0.00  0.00    +0.220 A 
ATOM      9  N   UNL     1       3.473  29.322  43.290  0.00  0.00    -0.283 N 
ATOM     36  H   UNL     1       3.954  28.758  43.990  0.00  0.00    +0.155 HD
ATOM     37  N   UNL     1       4.218  27.838  41.634  0.00  0.00    -0.214 NA
BRANCH   4   3
ATOM      1  C   UNL     1       5.366  23.678  39.729  0.00  0.00    +0.020 A 
ATOM      2  C   UNL     1       4.536  24.840  39.947  0.00  0.00    +0.013 A 
ATOM      3  C   UNL     1       5.132  26.161  40.105  0.00  0.00    +0.019 A 
ATOM     38  C   UNL     1       6.581  26.272  40.035  0.00  0.00    +0.120 A 
ATOM     39  N   UNL     1       7.355  25.135  39.824  0.00  0.00    -0.263 NA
ATOM     40  C   UNL     1       6.792  23.858  39.673  0.00  0.00    +0.111 A 
ENDBRANCH   4   3
ENDBRANCH  10   9
BRANCH  12  13
ATOM     13  N   UNL     1       3.430  34.228  44.115  0.00  0.00    -0.281 N 
ATOM     14  C   UNL     1       3.499  35.160  43.093  0.00  0.00    +0.248 C 
ATOM     30  O   UNL     1       3.203  34.933  41.929  0.00  0.00    -0.270 OA
ATOM     31  H   UNL     1       3.887  34.488  44.990  0.00  0.00    +0.155 HD
BRANCH  14  15
ATOM     15  C   UNL     1       3.981  36.540  43.405  0.00  0.00    +0.037 A 
ATOM     16  C   UNL     1       5.271  36.764  44.064  0.00  0.00    +0.013 A 
ATOM     17  C   UNL     1       5.704  38.105  44.369  0.00  0.00    +0.005 A 
ATOM     18  C   UNL     1       4.846  39.233  44.013  0.00  0.00    -0.033 A 
ATOM     28  C   UNL     1       3.575  38.982  43.355  0.00  0.00    +0.005 A 
ATOM     29  C   UNL     1       3.146  37.670  43.056  0.00  0.00    +0.013 A 
BRANCH  18  19
ATOM     19  C   UNL     1       5.219  40.695  44.319  0.00  0.00    +0.119 C 
BRANCH  19  20
ATOM     20  N   UNL     1       5.566  41.570  43.159  0.00  0.00    -0.302 NA
ATOM     21  C   UNL     1       6.792  41.057  42.399  0.00  0.00    +0.066 C 
ATOM     22  C   UNL     1       7.127  41.971  41.176  0.00  0.00    -0.064 C 
ATOM     23  N   UNL     1       7.351  43.404  41.660  0.00  0.00    +0.379 N 
ATOM     24  C   UNL     1       7.723  44.255  40.520  0.00  0.00    -0.096 C 
ATOM     25  H   UNL     1       8.212  43.391  42.368  0.00  0.00    -0.082 HD
ATOM     26  C   UNL     1       6.137  43.922  42.420  0.00  0.00    -0.064 C 
ATOM     27  C   UNL     1       5.795  42.990  43.616  0.00  0.00    +0.066 C 
ENDBRANCH  19  20
ENDBRANCH  18  19
ENDBRANCH  14  15
ENDBRANCH  12  13
TORSDOF 6
ENDMDL
MODEL 4
REMARK VINA RESULT:      -6.4      1.593      2.453
REMARK  Name = C:\Users\Docking\Desktop\test protocol\1iep_ligandH.pdb
REMARK  8 active torsions:
REMARK  status: ('A' for Active; 'I' for Inactive)
REMARK    1  A    between atoms: _5  and  _11
REMARK    2  A    between atoms: _19  and  _21
REMARK    3  A    between atoms: _22  and  _66
REMARK    4  A    between atoms: _27  and  _30
REMARK    5  A    between atoms: _32  and  _33
REMARK    6  A    between atoms: _38  and  _43
REMARK    7  A    between atoms: _43  and  _46
REMARK    8  A    between atoms: _53  and  _55
REMARK                            x       y       z     vdW  Elec       q    Type
REMARK                         _______ _______ _______ _____ _____    ______ ____
ROOT
ATOM     10  C   UNL     1       3.582  24.692  56.564  0.00  0.00    +0.038 A 
ATOM     11  C   UNL     1       2.843  25.283  55.508  0.00  0.00    +0.047 A 
ATOM     12  C   UNL     1       1.415  25.530  55.636  0.00  0.00    +0.035 A 
ATOM     32  C   UNL     1       0.772  25.163  56.854  0.00  0.00    +0.024 A 
ATOM     33  C   UNL     1       1.508  24.560  57.937  0.00  0.00    +0.007 A 
ATOM     34  C   UNL     1       2.917  24.313  57.816  0.00  0.00    -0.029 A 
ATOM     35  C   UNL     1       3.654  23.658  59.007  0.00  0.00    +0.045 C 
ENDROOT
BRANCH  10   9
ATOM      4  C   UNL     1       8.177  25.914  57.228  0.00  0.00    +0.077 A 
ATOM      5  C   UNL     1       7.819  27.091  57.965  0.00  0.00    +0.048 A 
ATOM      6  C   UNL     1       6.441  27.350  58.145  0.00  0.00    +0.116 A 
ATOM      7  N   UNL     1       5.501  26.489  57.623  0.00  0.00    -0.223 NA
ATOM      8  C   UNL     1       5.880  25.363  56.915  0.00  0.00    +0.220 A 
ATOM      9  N   UNL     1       4.951  24.479  56.388  0.00  0.00    -0.283 N 
ATOM     36  H   UNL     1       5.271  23.663  55.866  0.00  0.00    +0.155 HD
ATOM     37  N   UNL     1       7.189  25.094  56.728  0.00  0.00    -0.214 NA
BRANCH   4   3
ATOM      1  C   UNL     1      11.353  24.324  55.590  0.00  0.00    +0.020 A 
ATOM      2  C   UNL     1       9.973  24.693  55.806  0.00  0.00    +0.013 A 
ATOM      3  C   UNL     1       9.590  25.503  56.956  0.00  0.00    +0.019 A 
ATOM     38  C   UNL     1      10.636  25.926  57.875  0.00  0.00    +0.120 A 
ATOM     39  N   UNL     1      11.957  25.554  57.642  0.00  0.00    -0.263 NA
ATOM     40  C   UNL     1      12.337  24.774  56.539  0.00  0.00    +0.111 A 
ENDBRANCH   4   3
ENDBRANCH  10   9
BRANCH  12  13
ATOM     13  N   UNL     1       0.610  26.119  54.595  0.00  0.00    -0.281 N 
ATOM     14  C   UNL     1      -0.300  25.489  53.762  0.00  0.00    +0.248 C 
ATOM     30  O   UNL     1      -0.404  24.278  53.643  0.00  0.00    -0.270 OA
ATOM     31  H   UNL     1       0.726  27.123  54.454  0.00  0.00    +0.155 HD
BRANCH  14  15
ATOM     15  C   UNL     1      -1.218  26.327  52.930  0.00  0.00    +0.037 A 
ATOM     16  C   UNL     1      -2.398  26.970  53.514  0.00  0.00    +0.013 A 
ATOM     17  C   UNL     1      -3.276  27.758  52.686  0.00  0.00    +0.005 A 
ATOM     18  C   UNL     1      -2.975  27.909  51.264  0.00  0.00    -0.033 A 
ATOM     28  C   UNL     1      -1.795  27.264  50.712  0.00  0.00    +0.005 A 
ATOM     29  C   UNL     1      -0.933  26.490  51.521  0.00  0.00    +0.013 A 
BRANCH  18  19
ATOM     19  C   UNL     1      -3.868  28.714  50.301  0.00  0.00    +0.119 C 
BRANCH  19  20
ATOM     20  N   UNL     1      -4.672  27.942  49.307  0.00  0.00    -0.302 NA
ATOM     21  C   UNL     1      -5.137  28.818  48.141  0.00  0.00    +0.066 C 
ATOM     22  C   UNL     1      -5.958  27.989  47.099  0.00  0.00    -0.064 C 
ATOM     23  N   UNL     1      -7.153  27.338  47.797  0.00  0.00    +0.379 N 
ATOM     24  C   UNL     1      -7.959  26.605  46.810  0.00  0.00    -0.096 C 
ATOM     25  H   UNL     1      -7.787  28.154  48.214  0.00  0.00    -0.082 HD
ATOM     26  C   UNL     1      -6.699  26.467  48.961  0.00  0.00    -0.064 C 
ATOM     27  C   UNL     1      -5.860  27.293  49.975  0.00  0.00    +0.066 C 
ENDBRANCH  19  20
ENDBRANCH  18  19
ENDBRANCH  14  15
ENDBRANCH  12  13
TORSDOF 6
ENDMDL
MODEL 5
REMARK VINA RESULT:      -6.3     18.098     22.300
REMARK  Name = C:\Users\Docking\Desktop\test protocol\1iep_ligandH.pdb
REMARK  8 active torsions:
REMARK  status: ('A' for Active; 'I' for Inactive)
REMARK    1  A    between atoms: _5  and  _11
REMARK    2  A    between atoms: _19  and  _21
REMARK    3  A    between atoms: _22  and  _66
REMARK    4  A    between atoms: _27  and  _30
REMARK    5  A    between atoms: _32  and  _33
REMARK    6  A    between atoms: _38  and  _43
REMARK    7  A    between atoms: _43  and  _46
REMARK    8  A    between atoms: _53  and  _55
REMARK                            x       y       z     vdW  Elec       q    Type
REMARK                         _______ _______ _______ _____ _____    ______ ____
ROOT
ATOM     10  C   UNL     1       6.742  28.360  36.570  0.00  0.00    +0.038 A 
ATOM     11  C   UNL     1       7.746  27.366  36.448  0.00  0.00    +0.047 A 
ATOM     12  C   UNL     1       8.676  27.369  35.330  0.00  0.00    +0.035 A 
ATOM     32  C   UNL     1       8.556  28.402  34.355  0.00  0.00    +0.024 A 
ATOM     33  C   UNL     1       7.541  29.420  34.463  0.00  0.00    +0.007 A 
ATOM     34  C   UNL     1       6.619  29.420  35.563  0.00  0.00    -0.029 A 
ATOM     35  C   UNL     1       5.546  30.532  35.624  0.00  0.00    +0.045 C 
ENDROOT
BRANCH  10   9
ATOM      4  C   UNL     1       5.430  29.676  40.996  0.00  0.00    +0.077 A 
ATOM      5  C   UNL     1       6.583  30.516  41.152  0.00  0.00    +0.048 A 
ATOM      6  C   UNL     1       7.492  30.576  40.072  0.00  0.00    +0.116 A 
ATOM      7  N   UNL     1       7.257  29.847  38.927  0.00  0.00    -0.223 NA
ATOM      8  C   UNL     1       6.136  29.045  38.810  0.00  0.00    +0.220 A 
ATOM      9  N   UNL     1       5.875  28.309  37.665  0.00  0.00    -0.283 N 
ATOM     36  H   UNL     1       5.041  27.724  37.621  0.00  0.00    +0.155 HD
ATOM     37  N   UNL     1       5.253  28.969  39.828  0.00  0.00    -0.214 NA
BRANCH   4   3
ATOM      1  C   UNL     1       2.775  28.113  43.407  0.00  0.00    +0.020 A 
ATOM      2  C   UNL     1       3.790  28.219  42.383  0.00  0.00    +0.013 A 
ATOM      3  C   UNL     1       4.376  29.510  42.047  0.00  0.00    +0.019 A 
ATOM     38  C   UNL     1       3.911  30.684  42.770  0.00  0.00    +0.120 A 
ATOM     39  N   UNL     1       2.932  30.552  43.750  0.00  0.00    -0.263 NA
ATOM     40  C   UNL     1       2.359  29.315  44.081  0.00  0.00    +0.111 A 
ENDBRANCH   4   3
ENDBRANCH  10   9
BRANCH  12  13
ATOM     13  N   UNL     1       9.711  26.382  35.149  0.00  0.00    -0.281 N 
ATOM     14  C   UNL     1       9.692  25.270  34.323  0.00  0.00    +0.248 C 
ATOM     30  O   UNL     1       8.691  24.836  33.770  0.00  0.00    -0.270 OA
ATOM     31  H   UNL     1      10.560  26.519  35.696  0.00  0.00    +0.155 HD
BRANCH  14  15
ATOM     15  C   UNL     1      10.965  24.523  34.087  0.00  0.00    +0.037 A 
ATOM     16  C   UNL     1      11.472  24.295  32.732  0.00  0.00    +0.013 A 
ATOM     17  C   UNL     1      12.694  23.557  32.532  0.00  0.00    +0.005 A 
ATOM     18  C   UNL     1      13.418  23.043  33.693  0.00  0.00    -0.033 A 
ATOM     28  C   UNL     1      12.895  23.288  35.026  0.00  0.00    +0.005 A 
ATOM     29  C   UNL     1      11.697  24.011  35.226  0.00  0.00    +0.013 A 
BRANCH  18  19
ATOM     19  C   UNL     1      14.719  22.226  33.573  0.00  0.00    +0.119 C 
BRANCH  19  20
ATOM     20  N   UNL     1      15.183  21.879  32.197  0.00  0.00    -0.302 NA
ATOM     21  C   UNL     1      15.750  20.458  32.123  0.00  0.00    +0.066 C 
ATOM     22  C   UNL     1      16.210  20.102  30.672  0.00  0.00    -0.064 C 
ATOM     23  N   UNL     1      17.248  21.124  30.205  0.00  0.00    +0.379 N 
ATOM     24  C   UNL     1      17.725  20.760  28.863  0.00  0.00    -0.096 C 
ATOM     25  H   UNL     1      18.117  21.066  30.901  0.00  0.00    -0.082 HD
ATOM     26  C   UNL     1      16.694  22.540  30.277  0.00  0.00    -0.064 C 
ATOM     27  C   UNL     1      16.212  22.872  31.717  0.00  0.00    +0.066 C 
ENDBRANCH  19  20
ENDBRANCH  18  19
ENDBRANCH  14  15
ENDBRANCH  12  13
TORSDOF 6
ENDMDL
