MODEL 1
REMARK VINA RESULT:      -8.3      0.000      0.000
REMARK  Name = C:\Users\Docking\Desktop\test protocol\1iep_ligandH.pdb
REMARK  8 active torsions:
REMARK  status: ('A' for Active; 'I' for Inactive)
REMARK    1  A    between atoms: _5  and  _11
REMARK    2  A    between atoms: _19  and  _21
REMARK    3  A    between atoms: _22  and  _66
REMARK    4  A    between atoms: _27  and  _30
REMARK    5  A    between atoms: _32  and  _33
REMARK    6  A    between atoms: _38  and  _43
REMARK    7  A    between atoms: _43  and  _46
REMARK    8  A    between atoms: _53  and  _55
REMARK                            x       y       z     vdW  Elec       q    Type
REMARK                         _______ _______ _______ _____ _____    ______ ____
ROOT
ATOM     10  C   UNL     1     -15.292  22.017  -8.164  0.00  0.00    +0.038 A 
ATOM     11  C   UNL     1     -14.054  21.839  -8.832  0.00  0.00    +0.047 A 
ATOM     12  C   UNL     1     -13.170  22.964  -9.093  0.00  0.00    +0.035 A 
ATOM     32  C   UNL     1     -13.579  24.259  -8.657  0.00  0.00    +0.024 A 
ATOM     33  C   UNL     1     -14.835  24.459  -7.979  0.00  0.00    +0.007 A 
ATOM     34  C   UNL     1     -15.712  23.352  -7.721  0.00  0.00    -0.029 A 
ATOM     35  C   UNL     1     -17.050  23.626  -6.995  0.00  0.00    +0.045 C 
ENDROOT
BRANCH  10   9
ATOM      4  C   UNL     1     -18.681  18.903  -9.527  0.00  0.00    +0.077 A 
ATOM      5  C   UNL     1     -18.875  19.572 -10.781  0.00  0.00    +0.048 A 
ATOM      6  C   UNL     1     -18.087  20.718 -11.034  0.00  0.00    +0.116 A 
ATOM      7  N   UNL     1     -17.177  21.153 -10.095  0.00  0.00    -0.223 NA
ATOM      8  C   UNL     1     -17.017  20.486  -8.895  0.00  0.00    +0.220 A 
ATOM      9  N   UNL     1     -16.102  20.901  -7.940  0.00  0.00    -0.283 N 
ATOM     36  H   UNL     1     -16.018  20.386  -7.064  0.00  0.00    +0.155 HD
ATOM     37  N   UNL     1     -17.757  19.390  -8.629  0.00  0.00    -0.214 NA
BRANCH   4   3
ATOM      1  C   UNL     1     -19.614  15.194  -8.705  0.00  0.00    +0.020 A 
ATOM      2  C   UNL     1     -18.842  16.346  -9.112  0.00  0.00    +0.013 A 
ATOM      3  C   UNL     1     -19.435  17.677  -9.116  0.00  0.00    +0.019 A 
ATOM     38  C   UNL     1     -20.823  17.810  -8.697  0.00  0.00    +0.120 A 
ATOM     39  N   UNL     1     -21.542  16.683  -8.312  0.00  0.00    -0.263 NA
ATOM     40  C   UNL     1     -20.982  15.397  -8.306  0.00  0.00    +0.111 A 
ENDBRANCH   4   3
ENDBRANCH  10   9
BRANCH  12  13
ATOM     13  N   UNL     1     -11.905  22.845  -9.773  0.00  0.00    -0.281 N 
ATOM     14  C   UNL     1     -10.638  22.801  -9.214  0.00  0.00    +0.248 C 
ATOM     30  O   UNL     1     -10.387  23.074  -8.049  0.00  0.00    -0.270 OA
ATOM     31  H   UNL     1     -11.948  22.786 -10.790  0.00  0.00    +0.155 HD
BRANCH  14  15
ATOM     15  C   UNL     1      -9.481  22.412 -10.076  0.00  0.00    +0.037 A 
ATOM     16  C   UNL     1      -8.662  21.238  -9.764  0.00  0.00    +0.013 A 
ATOM     17  C   UNL     1      -7.541  20.894 -10.603  0.00  0.00    +0.005 A 
ATOM     18  C   UNL     1      -7.234  21.727 -11.764  0.00  0.00    -0.033 A 
ATOM     28  C   UNL     1      -8.066  22.883 -12.052  0.00  0.00    +0.005 A 
ATOM     29  C   UNL     1      -9.164  23.223 -11.232  0.00  0.00    +0.013 A 
BRANCH  18  19
ATOM     19  C   UNL     1      -6.044  21.447 -12.701  0.00  0.00    +0.119 C 
BRANCH  19  20
ATOM     20  N   UNL     1      -6.263  20.473 -13.812  0.00  0.00    -0.302 NA
ATOM     21  C   UNL     1      -4.943  19.955 -14.390  0.00  0.00    +0.066 C 
ATOM     22  C   UNL     1      -5.191  18.920 -15.535  0.00  0.00    -0.064 C 
ATOM     23  N   UNL     1      -6.045  19.566 -16.628  0.00  0.00    +0.379 N 
ATOM     24  C   UNL     1      -6.231  18.614 -17.732  0.00  0.00    -0.096 C 
ATOM     25  H   UNL     1      -5.479  20.440 -17.026  0.00  0.00    -0.082 HD
ATOM     26  C   UNL     1      -7.358  20.086 -16.060  0.00  0.00    -0.064 C 
ATOM     27  C   UNL     1      -7.101  21.092 -14.904  0.00  0.00    +0.066 C 
ENDBRANCH  19  20
ENDBRANCH  18  19
ENDBRANCH  14  15
ENDBRANCH  12  13
TORSDOF 6
ENDMDL
MODEL 2
REMARK VINA RESULT:      -8.2     21.977     23.858
REMARK  Name = C:\Users\Docking\Desktop\test protocol\1iep_ligandH.pdb
REMARK  8 active torsions:
REMARK  status: ('A' for Active; 'I' for Inactive)
REMARK    1  A    between atoms: _5  and  _11
REMARK    2  A    between atoms: _19  and  _21
REMARK    3  A    between atoms: _22  and  _66
REMARK    4  A    between atoms: _27  and  _30
REMARK    5  A    between atoms: _32  and  _33
REMARK    6  A    between atoms: _38  and  _43
REMARK    7  A    between atoms: _43  and  _46
REMARK    8  A    between atoms: _53  and  _55
REMARK                            x       y       z     vdW  Elec       q    Type
REMARK                         _______ _______ _______ _____ _____    ______ ____
ROOT
ATOM     10  C   UNL     1     -23.452   1.024 -23.156  0.00  0.00    +0.038 A 
ATOM     11  C   UNL     1     -22.094   1.287 -22.843  0.00  0.00    +0.047 A 
ATOM     12  C   UNL     1     -21.130   1.604 -23.886  0.00  0.00    +0.035 A 
ATOM     32  C   UNL     1     -21.585   1.647 -25.236  0.00  0.00    +0.024 A 
ATOM     33  C   UNL     1     -22.962   1.382 -25.571  0.00  0.00    +0.007 A 
ATOM     34  C   UNL     1     -23.917   1.067 -24.547  0.00  0.00    -0.029 A 
ATOM     35  C   UNL     1     -25.379   0.785 -24.966  0.00  0.00    +0.045 C 
ENDROOT
BRANCH  10   9
ATOM      4  C   UNL     1     -26.895   2.247 -20.042  0.00  0.00    +0.077 A 
ATOM      5  C   UNL     1     -26.918   3.603 -20.509  0.00  0.00    +0.048 A 
ATOM      6  C   UNL     1     -26.023   3.947 -21.547  0.00  0.00    +0.116 A 
ATOM      7  N   UNL     1     -25.173   2.997 -22.072  0.00  0.00    -0.223 NA
ATOM      8  C   UNL     1     -25.175   1.699 -21.597  0.00  0.00    +0.220 A 
ATOM      9  N   UNL     1     -24.335   0.725 -22.115  0.00  0.00    -0.283 N 
ATOM     36  H   UNL     1     -24.362  -0.220 -21.733  0.00  0.00    +0.155 HD
ATOM     37  N   UNL     1     -26.019   1.345 -20.605  0.00  0.00    -0.214 NA
BRANCH   4   3
ATOM      1  C   UNL     1     -28.258   0.236 -16.976  0.00  0.00    +0.020 A 
ATOM      2  C   UNL     1     -27.362   0.701 -18.010  0.00  0.00    +0.013 A 
ATOM      3  C   UNL     1     -27.782   1.729 -18.953  0.00  0.00    +0.019 A 
ATOM     38  C   UNL     1     -29.126   2.272 -18.821  0.00  0.00    +0.120 A 
ATOM     39  N   UNL     1     -29.967   1.804 -17.817  0.00  0.00    -0.263 NA
ATOM     40  C   UNL     1     -29.574   0.813 -16.905  0.00  0.00    +0.111 A 
ENDBRANCH   4   3
ENDBRANCH  10   9
BRANCH  12  13
ATOM     13  N   UNL     1     -19.736   1.871 -23.630  0.00  0.00    -0.281 N 
ATOM     14  C   UNL     1     -18.698   0.959 -23.531  0.00  0.00    +0.248 C 
ATOM     30  O   UNL     1     -18.847  -0.250 -23.435  0.00  0.00    -0.270 OA
ATOM     31  H   UNL     1     -19.485   2.852 -23.507  0.00  0.00    +0.155 HD
BRANCH  14  15
ATOM     15  C   UNL     1     -17.292   1.465 -23.522  0.00  0.00    +0.037 A 
ATOM     16  C   UNL     1     -16.964   2.792 -22.995  0.00  0.00    +0.013 A 
ATOM     17  C   UNL     1     -15.601   3.261 -23.015  0.00  0.00    +0.005 A 
ATOM     18  C   UNL     1     -14.555   2.401 -23.563  0.00  0.00    -0.033 A 
ATOM     28  C   UNL     1     -14.908   1.088 -24.075  0.00  0.00    +0.005 A 
ATOM     29  C   UNL     1     -16.242   0.624 -24.058  0.00  0.00    +0.013 A 
BRANCH  18  19
ATOM     19  C   UNL     1     -13.078   2.829 -23.643  0.00  0.00    +0.119 C 
BRANCH  19  20
ATOM     20  N   UNL     1     -12.100   2.071 -22.807  0.00  0.00    -0.302 NA
ATOM     21  C   UNL     1     -11.174   3.003 -22.019  0.00  0.00    +0.066 C 
ATOM     22  C   UNL     1     -10.173   2.194 -21.132  0.00  0.00    -0.064 C 
ATOM     23  N   UNL     1      -9.362   1.246 -22.018  0.00  0.00    +0.379 N 
ATOM     24  C   UNL     1      -8.379   0.526 -21.195  0.00  0.00    -0.096 C 
ATOM     25  H   UNL     1      -8.798   1.869 -22.751  0.00  0.00    -0.082 HD
ATOM     26  C   UNL     1     -10.275   0.318 -22.807  0.00  0.00    -0.064 C 
ATOM     27  C   UNL     1     -11.286   1.133 -23.662  0.00  0.00    +0.066 C 
ENDBRANCH  19  20
ENDBRANCH  18  19
ENDBRANCH  14  15
ENDBRANCH  12  13
TORSDOF 6
ENDMDL
MODEL 3
REMARK VINA RESULT:      -8.1      8.101     12.654
REMARK  Name = C:\Users\Docking\Desktop\test protocol\1iep_ligandH.pdb
REMARK  8 active torsions:
REMARK  status: ('A' for Active; 'I' for Inactive)
REMARK    1  A    between atoms: _5  and  _11
REMARK    2  A    between atoms: _19  and  _21
REMARK    3  A    between atoms: _22  and  _66
REMARK    4  A    between atoms: _27  and  _30
REMARK    5  A    between atoms: _32  and  _33
REMARK    6  A    between atoms: _38  and  _43
REMARK    7  A    between atoms: _43  and  _46
REMARK    8  A    between atoms: _53  and  _55
REMARK                            x       y       z     vdW  Elec       q    Type
REMARK                         _______ _______ _______ _____ _____    ______ ____
ROOT
ATOM     10  C   UNL     1      -9.371  17.356  -3.843  0.00  0.00    +0.038 A 
ATOM     11  C   UNL     1     -10.734  17.470  -4.219  0.00  0.00    +0.047 A 
ATOM     12  C   UNL     1     -11.412  18.757  -4.210  0.00  0.00    +0.035 A 
ATOM     32  C   UNL     1     -10.671  19.908  -3.815  0.00  0.00    +0.024 A 
ATOM     33  C   UNL     1      -9.285  19.810  -3.429  0.00  0.00    +0.007 A 
ATOM     34  C   UNL     1      -8.612  18.543  -3.433  0.00  0.00    -0.029 A 
ATOM     35  C   UNL     1      -7.127  18.496  -3.003  0.00  0.00    +0.045 C 
ENDROOT
BRANCH  10   9
ATOM      4  C   UNL     1      -8.061  13.245  -1.739  0.00  0.00    +0.077 A 
ATOM      5  C   UNL     1      -8.595  13.655  -0.472  0.00  0.00    +0.048 A 
ATOM      6  C   UNL     1      -9.192  14.933  -0.402  0.00  0.00    +0.116 A 
ATOM      7  N   UNL     1      -9.246  15.734  -1.522  0.00  0.00    -0.223 NA
ATOM      8  C   UNL     1      -8.720  15.309  -2.729  0.00  0.00    +0.220 A 
ATOM      9  N   UNL     1      -8.770  16.095  -3.870  0.00  0.00    -0.283 N 
ATOM     36  H   UNL     1      -8.364  15.749  -4.739  0.00  0.00    +0.155 HD
ATOM     37  N   UNL     1      -8.143  14.093  -2.821  0.00  0.00    -0.214 NA
BRANCH   4   3
ATOM      1  C   UNL     1      -5.924  10.003  -1.265  0.00  0.00    +0.020 A 
ATOM      2  C   UNL     1      -6.536  11.283  -0.989  0.00  0.00    +0.013 A 
ATOM      3  C   UNL     1      -7.402  11.922  -1.973  0.00  0.00    +0.019 A 
ATOM     38  C   UNL     1      -7.630  11.233  -3.235  0.00  0.00    +0.120 A 
ATOM     39  N   UNL     1      -7.026  10.003  -3.472  0.00  0.00    -0.263 NA
ATOM     40  C   UNL     1      -6.190   9.379  -2.534  0.00  0.00    +0.111 A 
ENDBRANCH   4   3
ENDBRANCH  10   9
BRANCH  12  13
ATOM     13  N   UNL     1     -12.796  18.932  -4.573  0.00  0.00    -0.281 N 
ATOM     14  C   UNL     1     -13.318  19.730  -5.578  0.00  0.00    +0.248 C 
ATOM     30  O   UNL     1     -12.685  20.583  -6.182  0.00  0.00    -0.270 OA
ATOM     31  H   UNL     1     -13.474  18.405  -4.023  0.00  0.00    +0.155 HD
BRANCH  14  15
ATOM     15  C   UNL     1     -14.755  19.567  -5.957  0.00  0.00    +0.037 A 
ATOM     16  C   UNL     1     -15.756  19.142  -4.976  0.00  0.00    +0.013 A 
ATOM     17  C   UNL     1     -17.132  18.975  -5.372  0.00  0.00    +0.005 A 
ATOM     18  C   UNL     1     -17.515  19.237  -6.758  0.00  0.00    -0.033 A 
ATOM     28  C   UNL     1     -16.502  19.664  -7.709  0.00  0.00    +0.005 A 
ATOM     29  C   UNL     1     -15.152  19.826  -7.325  0.00  0.00    +0.013 A 
BRANCH  18  19
ATOM     19  C   UNL     1     -18.956  19.065  -7.274  0.00  0.00    +0.119 C 
BRANCH  19  20
ATOM     20  N   UNL     1     -19.398  19.966  -8.380  0.00  0.00    -0.302 NA
ATOM     21  C   UNL     1     -19.532  21.420  -7.918  0.00  0.00    +0.066 C 
ATOM     22  C   UNL     1     -19.974  22.352  -9.093  0.00  0.00    -0.064 C 
ATOM     23  N   UNL     1     -21.294  21.845  -9.674  0.00  0.00    +0.379 N 
ATOM     24  C   UNL     1     -21.741  22.752 -10.741  0.00  0.00    -0.096 C 
ATOM     25  H   UNL     1     -22.056  21.877  -8.861  0.00  0.00    -0.082 HD
ATOM     26  C   UNL     1     -21.170  20.399 -10.134  0.00  0.00    -0.064 C 
ATOM     27  C   UNL     1     -20.702  19.486  -8.966  0.00  0.00    +0.066 C 
ENDBRANCH  19  20
ENDBRANCH  18  19
ENDBRANCH  14  15
ENDBRANCH  12  13
TORSDOF 6
ENDMDL
MODEL 4
REMARK VINA RESULT:      -8.0      1.693      1.929
REMARK  Name = C:\Users\Docking\Desktop\test protocol\1iep_ligandH.pdb
REMARK  8 active torsions:
REMARK  status: ('A' for Active; 'I' for Inactive)
REMARK    1  A    between atoms: _5  and  _11
REMARK    2  A    between atoms: _19  and  _21
REMARK    3  A    between atoms: _22  and  _66
REMARK    4  A    between atoms: _27  and  _30
REMARK    5  A    between atoms: _32  and  _33
REMARK    6  A    between atoms: _38  and  _43
REMARK    7  A    between atoms: _43  and  _46
REMARK    8  A    between atoms: _53  and  _55
REMARK                            x       y       z     vdW  Elec       q    Type
REMARK                         _______ _______ _______ _____ _____    ______ ____
ROOT
ATOM     10  C   UNL     1     -14.053  20.477  -6.687  0.00  0.00    +0.038 A 
ATOM     11  C   UNL     1     -13.053  20.601  -7.685  0.00  0.00    +0.047 A 
ATOM     12  C   UNL     1     -12.009  21.609  -7.583  0.00  0.00    +0.035 A 
ATOM     32  C   UNL     1     -12.013  22.474  -6.450  0.00  0.00    +0.024 A 
ATOM     33  C   UNL     1     -13.024  22.363  -5.427  0.00  0.00    +0.007 A 
ATOM     34  C   UNL     1     -14.057  21.372  -5.524  0.00  0.00    -0.029 A 
ATOM     35  C   UNL     1     -15.118  21.302  -4.401  0.00  0.00    +0.045 C 
ENDROOT
BRANCH  10   9
ATOM      4  C   UNL     1     -18.170  18.843  -8.536  0.00  0.00    +0.077 A 
ATOM      5  C   UNL     1     -18.407  20.068  -9.245  0.00  0.00    +0.048 A 
ATOM      6  C   UNL     1     -17.448  21.096  -9.102  0.00  0.00    +0.116 A 
ATOM      7  N   UNL     1     -16.339  20.903  -8.306  0.00  0.00    -0.223 NA
ATOM      8  C   UNL     1     -16.143  19.710  -7.635  0.00  0.00    +0.220 A 
ATOM      9  N   UNL     1     -15.031  19.491  -6.836  0.00  0.00    -0.283 N 
ATOM     36  H   UNL     1     -14.926  18.600  -6.351  0.00  0.00    +0.155 HD
ATOM     37  N   UNL     1     -17.044  18.713  -7.754  0.00  0.00    -0.214 NA
BRANCH   4   3
ATOM      1  C   UNL     1     -21.372  16.598  -8.440  0.00  0.00    +0.020 A 
ATOM      2  C   UNL     1     -20.528  17.769  -8.378  0.00  0.00    +0.013 A 
ATOM      3  C   UNL     1     -19.090  17.663  -8.589  0.00  0.00    +0.019 A 
ATOM     38  C   UNL     1     -18.533  16.347  -8.864  0.00  0.00    +0.120 A 
ATOM     39  N   UNL     1     -19.370  15.237  -8.917  0.00  0.00    -0.263 NA
ATOM     40  C   UNL     1     -20.755  15.327  -8.713  0.00  0.00    +0.111 A 
ENDBRANCH   4   3
ENDBRANCH  10   9
BRANCH  12  13
ATOM     13  N   UNL     1     -10.972  21.788  -8.569  0.00  0.00    -0.281 N 
ATOM     14  C   UNL     1      -9.615  21.549  -8.430  0.00  0.00    +0.248 C 
ATOM     30  O   UNL     1      -9.054  21.347  -7.362  0.00  0.00    -0.270 OA
ATOM     31  H   UNL     1     -11.275  22.131  -9.480  0.00  0.00    +0.155 HD
BRANCH  14  15
ATOM     15  C   UNL     1      -8.752  21.548  -9.651  0.00  0.00    +0.037 A 
ATOM     16  C   UNL     1      -7.761  20.494  -9.880  0.00  0.00    +0.013 A 
ATOM     17  C   UNL     1      -6.930  20.527 -11.058  0.00  0.00    +0.005 A 
ATOM     18  C   UNL     1      -7.089  21.617 -12.016  0.00  0.00    -0.033 A 
ATOM     28  C   UNL     1      -8.084  22.647 -11.767  0.00  0.00    +0.005 A 
ATOM     29  C   UNL     1      -8.900  22.619 -10.613  0.00  0.00    +0.013 A 
BRANCH  18  19
ATOM     19  C   UNL     1      -6.232  21.744 -13.290  0.00  0.00    +0.119 C 
BRANCH  19  20
ATOM     20  N   UNL     1      -6.592  20.870 -14.446  0.00  0.00    -0.302 NA
ATOM     21  C   UNL     1      -5.833  19.540 -14.420  0.00  0.00    +0.066 C 
ATOM     22  C   UNL     1      -6.238  18.629 -15.624  0.00  0.00    -0.064 C 
ATOM     23  N   UNL     1      -5.979  19.375 -16.934  0.00  0.00    +0.379 N 
ATOM     24  C   UNL     1      -6.304  18.500 -18.070  0.00  0.00    -0.096 C 
ATOM     25  H   UNL     1      -4.888  19.602 -16.983  0.00  0.00    -0.082 HD
ATOM     26  C   UNL     1      -6.728  20.700 -16.967  0.00  0.00    -0.064 C 
ATOM     27  C   UNL     1      -6.340  21.585 -15.750  0.00  0.00    +0.066 C 
ENDBRANCH  19  20
ENDBRANCH  18  19
ENDBRANCH  14  15
ENDBRANCH  12  13
TORSDOF 6
ENDMDL
MODEL 5
REMARK VINA RESULT:      -8.0      7.805     12.357
REMARK  Name = C:\Users\Docking\Desktop\test protocol\1iep_ligandH.pdb
REMARK  8 active torsions:
REMARK  status: ('A' for Active; 'I' for Inactive)
REMARK    1  A    between atoms: _5  and  _11
REMARK    2  A    between atoms: _19  and  _21
REMARK    3  A    between atoms: _22  and  _66
REMARK    4  A    between atoms: _27  and  _30
REMARK    5  A    between atoms: _32  and  _33
REMARK    6  A    between atoms: _38  and  _43
REMARK    7  A    between atoms: _43  and  _46
REMARK    8  A    between atoms: _53  and  _55
REMARK                            x       y       z     vdW  Elec       q    Type
REMARK                         _______ _______ _______ _____ _____    ______ ____
ROOT
ATOM     10  C   UNL     1      -9.151  17.677  -4.027  0.00  0.00    +0.038 A 
ATOM     11  C   UNL     1     -10.462  17.912  -4.516  0.00  0.00    +0.047 A 
ATOM     12  C   UNL     1     -11.028  19.252  -4.537  0.00  0.00    +0.035 A 
ATOM     32  C   UNL     1     -10.229  20.330  -4.056  0.00  0.00    +0.024 A 
ATOM     33  C   UNL     1      -8.895  20.109  -3.555  0.00  0.00    +0.007 A 
ATOM     34  C   UNL     1      -8.333  18.789  -3.529  0.00  0.00    -0.029 A 
ATOM     35  C   UNL     1      -6.900  18.609  -2.976  0.00  0.00    +0.045 C 
ENDROOT
BRANCH  10   9
ATOM      4  C   UNL     1      -8.190  13.511  -1.845  0.00  0.00    +0.077 A 
ATOM      5  C   UNL     1      -8.688  13.988  -0.586  0.00  0.00    +0.048 A 
ATOM      6  C   UNL     1      -9.175  15.313  -0.542  0.00  0.00    +0.116 A 
ATOM      7  N   UNL     1      -9.162  16.095  -1.677  0.00  0.00    -0.223 NA
ATOM      8  C   UNL     1      -8.674  15.604  -2.874  0.00  0.00    +0.220 A 
ATOM      9  N   UNL     1      -8.659  16.370  -4.030  0.00  0.00    -0.283 N 
ATOM     36  H   UNL     1      -8.283  15.974  -4.892  0.00  0.00    +0.155 HD
ATOM     37  N   UNL     1      -8.201  14.343  -2.943  0.00  0.00    -0.214 NA
BRANCH   4   3
ATOM      1  C   UNL     1      -7.326  10.037  -3.420  0.00  0.00    +0.020 A 
ATOM      2  C   UNL     1      -7.876  11.364  -3.270  0.00  0.00    +0.013 A 
ATOM      3  C   UNL     1      -7.645  12.133  -2.053  0.00  0.00    +0.019 A 
ATOM     38  C   UNL     1      -6.846  11.524  -1.000  0.00  0.00    +0.120 A 
ATOM     39  N   UNL     1      -6.331  10.243  -1.172  0.00  0.00    -0.263 NA
ATOM     40  C   UNL     1      -6.548   9.494  -2.338  0.00  0.00    +0.111 A 
ENDBRANCH   4   3
ENDBRANCH  10   9
BRANCH  12  13
ATOM     13  N   UNL     1     -12.355  19.551  -5.014  0.00  0.00    -0.281 N 
ATOM     14  C   UNL     1     -12.718  20.111  -6.227  0.00  0.00    +0.248 C 
ATOM     30  O   UNL     1     -11.939  20.640  -7.006  0.00  0.00    -0.270 OA
ATOM     31  H   UNL     1     -13.120  19.322  -4.379  0.00  0.00    +0.155 HD
BRANCH  14  15
ATOM     15  C   UNL     1     -14.158  20.094  -6.628  0.00  0.00    +0.037 A 
ATOM     16  C   UNL     1     -14.580  20.525  -7.964  0.00  0.00    +0.013 A 
ATOM     17  C   UNL     1     -15.977  20.515  -8.319  0.00  0.00    +0.005 A 
ATOM     18  C   UNL     1     -16.963  20.071  -7.336  0.00  0.00    -0.033 A 
ATOM     28  C   UNL     1     -16.516  19.644  -6.021  0.00  0.00    +0.005 A 
ATOM     29  C   UNL     1     -15.148  19.653  -5.669  0.00  0.00    +0.013 A 
BRANCH  18  19
ATOM     19  C   UNL     1     -18.476  20.047  -7.622  0.00  0.00    +0.119 C 
BRANCH  19  20
ATOM     20  N   UNL     1     -19.136  18.710  -7.705  0.00  0.00    -0.302 NA
ATOM     21  C   UNL     1     -18.291  17.700  -8.487  0.00  0.00    +0.066 C 
ATOM     22  C   UNL     1     -18.985  16.301  -8.545  0.00  0.00    -0.064 C 
ATOM     23  N   UNL     1     -20.372  16.448  -9.173  0.00  0.00    +0.379 N 
ATOM     24  C   UNL     1     -21.004  15.125  -9.283  0.00  0.00    -0.096 C 
ATOM     25  H   UNL     1     -20.234  16.844 -10.207  0.00  0.00    -0.082 HD
ATOM     26  C   UNL     1     -21.218  17.452  -8.404  0.00  0.00    -0.064 C 
ATOM     27  C   UNL     1     -20.505  18.831  -8.326  0.00  0.00    +0.066 C 
ENDBRANCH  19  20
ENDBRANCH  18  19
ENDBRANCH  14  15
ENDBRANCH  12  13
TORSDOF 6
ENDMDL
