MODEL 1
REMARK VINA RESULT:      -8.4      0.000      0.000
REMARK  Name = C:\Users\Docking\Desktop\test protocol\1iep_ligandH.pdb
REMARK  8 active torsions:
REMARK  status: ('A' for Active; 'I' for Inactive)
REMARK    1  A    between atoms: _5  and  _11
REMARK    2  A    between atoms: _19  and  _21
REMARK    3  A    between atoms: _22  and  _66
REMARK    4  A    between atoms: _27  and  _30
REMARK    5  A    between atoms: _32  and  _33
REMARK    6  A    between atoms: _38  and  _43
REMARK    7  A    between atoms: _43  and  _46
REMARK    8  A    between atoms: _53  and  _55
REMARK                            x       y       z     vdW  Elec       q    Type
REMARK                         _______ _______ _______ _____ _____    ______ ____
ROOT
ATOM     10  C   UNL     1     -15.108  22.019  -8.495  0.00  0.00    +0.038 A 
ATOM     11  C   UNL     1     -13.833  21.815  -9.081  0.00  0.00    +0.047 A 
ATOM     12  C   UNL     1     -12.958  22.936  -9.388  0.00  0.00    +0.035 A 
ATOM     32  C   UNL     1     -13.412  24.251  -9.080  0.00  0.00    +0.024 A 
ATOM     33  C   UNL     1     -14.705  24.477  -8.485  0.00  0.00    +0.007 A 
ATOM     34  C   UNL     1     -15.574  23.375  -8.183  0.00  0.00    -0.029 A 
ATOM     35  C   UNL     1     -16.953  23.677  -7.551  0.00  0.00    +0.045 C 
ENDROOT
BRANCH  10   9
ATOM      4  C   UNL     1     -18.450  18.803  -9.730  0.00  0.00    +0.077 A 
ATOM      5  C   UNL     1     -18.638  19.405 -11.019  0.00  0.00    +0.048 A 
ATOM      6  C   UNL     1     -17.861  20.546 -11.321  0.00  0.00    +0.116 A 
ATOM      7  N   UNL     1     -16.964  21.038 -10.397  0.00  0.00    -0.223 NA
ATOM      8  C   UNL     1     -16.809  20.434  -9.163  0.00  0.00    +0.220 A 
ATOM      9  N   UNL     1     -15.908  20.907  -8.222  0.00  0.00    -0.283 N 
ATOM     36  H   UNL     1     -15.828  20.437  -7.320  0.00  0.00    +0.155 HD
ATOM     37  N   UNL     1     -17.540  19.344  -8.850  0.00  0.00    -0.214 NA
BRANCH   4   3
ATOM      1  C   UNL     1     -19.399  15.108  -8.864  0.00  0.00    +0.020 A 
ATOM      2  C   UNL     1     -18.638  16.245  -9.327  0.00  0.00    +0.013 A 
ATOM      3  C   UNL     1     -19.195  17.591  -9.265  0.00  0.00    +0.019 A 
ATOM     38  C   UNL     1     -20.536  17.753  -8.722  0.00  0.00    +0.120 A 
ATOM     39  N   UNL     1     -21.246  16.639  -8.285  0.00  0.00    -0.263 NA
ATOM     40  C   UNL     1     -20.721  15.339  -8.342  0.00  0.00    +0.111 A 
ENDBRANCH   4   3
ENDBRANCH  10   9
BRANCH  12  13
ATOM     13  N   UNL     1     -11.656  22.790  -9.991  0.00  0.00    -0.281 N 
ATOM     14  C   UNL     1     -10.423  22.763  -9.359  0.00  0.00    +0.248 C 
ATOM     30  O   UNL     1     -10.237  23.075  -8.193  0.00  0.00    -0.270 OA
ATOM     31  H   UNL     1     -11.642  22.696 -11.006  0.00  0.00    +0.155 HD
BRANCH  14  15
ATOM     15  C   UNL     1      -9.221  22.342 -10.141  0.00  0.00    +0.037 A 
ATOM     16  C   UNL     1      -8.778  23.094 -11.318  0.00  0.00    +0.013 A 
ATOM     17  C   UNL     1      -7.625  22.657 -12.064  0.00  0.00    +0.005 A 
ATOM     18  C   UNL     1      -6.905  21.460 -11.634  0.00  0.00    -0.033 A 
ATOM     28  C   UNL     1      -7.364  20.735 -10.460  0.00  0.00    +0.005 A 
ATOM     29  C   UNL     1      -8.494  21.161  -9.727  0.00  0.00    +0.013 A 
BRANCH  18  19
ATOM     19  C   UNL     1      -5.678  20.908 -12.382  0.00  0.00    +0.119 C 
BRANCH  19  20
ATOM     20  N   UNL     1      -5.535  21.271 -13.824  0.00  0.00    -0.302 NA
ATOM     21  C   UNL     1      -6.295  20.304 -14.737  0.00  0.00    +0.066 C 
ATOM     22  C   UNL     1      -6.154  20.712 -16.240  0.00  0.00    -0.064 C 
ATOM     23  N   UNL     1      -4.672  20.760 -16.615  0.00  0.00    +0.379 N 
ATOM     24  C   UNL     1      -4.538  21.087 -18.043  0.00  0.00    -0.096 C 
ATOM     25  H   UNL     1      -4.250  19.740 -16.460  0.00  0.00    -0.082 HD
ATOM     26  C   UNL     1      -3.909  21.717 -15.710  0.00  0.00    -0.064 C 
ATOM     27  C   UNL     1      -4.079  21.321 -14.217  0.00  0.00    +0.066 C 
ENDBRANCH  19  20
ENDBRANCH  18  19
ENDBRANCH  14  15
ENDBRANCH  12  13
TORSDOF 6
ENDMDL
MODEL 2
REMARK VINA RESULT:      -7.9     22.200     24.117
REMARK  Name = C:\Users\Docking\Desktop\test protocol\1iep_ligandH.pdb
REMARK  8 active torsions:
REMARK  status: ('A' for Active; 'I' for Inactive)
REMARK    1  A    between atoms: _5  and  _11
REMARK    2  A    between atoms: _19  and  _21
REMARK    3  A    between atoms: _22  and  _66
REMARK    4  A    between atoms: _27  and  _30
REMARK    5  A    between atoms: _32  and  _33
REMARK    6  A    between atoms: _38  and  _43
REMARK    7  A    between atoms: _43  and  _46
REMARK    8  A    between atoms: _53  and  _55
REMARK                            x       y       z     vdW  Elec       q    Type
REMARK                         _______ _______ _______ _____ _____    ______ ____
ROOT
ATOM     10  C   UNL     1     -23.693   1.698 -23.645  0.00  0.00    +0.038 A 
ATOM     11  C   UNL     1     -22.353   2.051 -23.342  0.00  0.00    +0.047 A 
ATOM     12  C   UNL     1     -21.245   1.184 -23.708  0.00  0.00    +0.035 A 
ATOM     32  C   UNL     1     -21.536  -0.036 -24.385  0.00  0.00    +0.024 A 
ATOM     33  C   UNL     1     -22.892  -0.412 -24.700  0.00  0.00    +0.007 A 
ATOM     34  C   UNL     1     -23.990   0.439 -24.339  0.00  0.00    -0.029 A 
ATOM     35  C   UNL     1     -25.424  -0.017 -24.697  0.00  0.00    +0.045 C 
ENDROOT
BRANCH  10   9
ATOM      4  C   UNL     1     -27.164   3.107 -20.645  0.00  0.00    +0.077 A 
ATOM      5  C   UNL     1     -26.933   2.000 -19.763  0.00  0.00    +0.048 A 
ATOM      6  C   UNL     1     -25.916   1.087 -20.121  0.00  0.00    +0.116 A 
ATOM      7  N   UNL     1     -25.191   1.276 -21.277  0.00  0.00    -0.223 NA
ATOM      8  C   UNL     1     -25.441   2.354 -22.107  0.00  0.00    +0.220 A 
ATOM      9  N   UNL     1     -24.719   2.569 -23.271  0.00  0.00    -0.283 N 
ATOM     36  H   UNL     1     -24.939   3.371 -23.860  0.00  0.00    +0.155 HD
ATOM     37  N   UNL     1     -26.408   3.239 -21.788  0.00  0.00    -0.214 NA
BRANCH   4   3
ATOM      1  C   UNL     1     -28.916   6.546 -20.007  0.00  0.00    +0.020 A 
ATOM      2  C   UNL     1     -27.876   5.570 -20.240  0.00  0.00    +0.013 A 
ATOM      3  C   UNL     1     -28.202   4.159 -20.402  0.00  0.00    +0.019 A 
ATOM     38  C   UNL     1     -29.600   3.765 -20.324  0.00  0.00    +0.120 A 
ATOM     39  N   UNL     1     -30.580   4.727 -20.098  0.00  0.00    -0.263 NA
ATOM     40  C   UNL     1     -30.278   6.088 -19.938  0.00  0.00    +0.111 A 
ENDBRANCH   4   3
ENDBRANCH  10   9
BRANCH  12  13
ATOM     13  N   UNL     1     -19.865   1.486 -23.419  0.00  0.00    -0.281 N 
ATOM     14  C   UNL     1     -18.758   0.673 -23.601  0.00  0.00    +0.248 C 
ATOM     30  O   UNL     1     -18.813  -0.524 -23.842  0.00  0.00    -0.270 OA
ATOM     31  H   UNL     1     -19.681   2.413 -23.033  0.00  0.00    +0.155 HD
BRANCH  14  15
ATOM     15  C   UNL     1     -17.394   1.272 -23.484  0.00  0.00    +0.037 A 
ATOM     16  C   UNL     1     -17.191   2.584 -22.865  0.00  0.00    +0.013 A 
ATOM     17  C   UNL     1     -15.867   3.147 -22.780  0.00  0.00    +0.005 A 
ATOM     18  C   UNL     1     -14.734   2.396 -23.315  0.00  0.00    -0.033 A 
ATOM     28  C   UNL     1     -14.963   1.094 -23.919  0.00  0.00    +0.005 A 
ATOM     29  C   UNL     1     -16.260   0.540 -24.005  0.00  0.00    +0.013 A 
BRANCH  18  19
ATOM     19  C   UNL     1     -13.289   2.929 -23.287  0.00  0.00    +0.119 C 
BRANCH  19  20
ATOM     20  N   UNL     1     -12.188   1.922 -23.353  0.00  0.00    -0.302 NA
ATOM     21  C   UNL     1     -11.225   2.045 -22.169  0.00  0.00    +0.066 C 
ATOM     22  C   UNL     1     -10.092   0.970 -22.242  0.00  0.00    -0.064 C 
ATOM     23  N   UNL     1      -9.342   1.114 -23.568  0.00  0.00    +0.379 N 
ATOM     24  C   UNL     1      -8.239   0.142 -23.615  0.00  0.00    -0.096 C 
ATOM     25  H   UNL     1      -8.895   2.134 -23.595  0.00  0.00    -0.082 HD
ATOM     26  C   UNL     1     -10.293   0.995 -24.751  0.00  0.00    -0.064 C 
ATOM     27  C   UNL     1     -11.431   2.048 -24.652  0.00  0.00    +0.066 C 
ENDBRANCH  19  20
ENDBRANCH  18  19
ENDBRANCH  14  15
ENDBRANCH  12  13
TORSDOF 6
ENDMDL
MODEL 3
REMARK VINA RESULT:      -7.9     12.237     14.626
REMARK  Name = C:\Users\Docking\Desktop\test protocol\1iep_ligandH.pdb
REMARK  8 active torsions:
REMARK  status: ('A' for Active; 'I' for Inactive)
REMARK    1  A    between atoms: _5  and  _11
REMARK    2  A    between atoms: _19  and  _21
REMARK    3  A    between atoms: _22  and  _66
REMARK    4  A    between atoms: _27  and  _30
REMARK    5  A    between atoms: _32  and  _33
REMARK    6  A    between atoms: _38  and  _43
REMARK    7  A    between atoms: _43  and  _46
REMARK    8  A    between atoms: _53  and  _55
REMARK                            x       y       z     vdW  Elec       q    Type
REMARK                         _______ _______ _______ _____ _____    ______ ____
ROOT
ATOM     10  C   UNL     1      -9.567  16.313  -1.444  0.00  0.00    +0.038 A 
ATOM     11  C   UNL     1      -8.920  15.089  -1.752  0.00  0.00    +0.047 A 
ATOM     12  C   UNL     1      -8.471  14.190  -0.700  0.00  0.00    +0.035 A 
ATOM     32  C   UNL     1      -8.701  14.567   0.655  0.00  0.00    +0.024 A 
ATOM     33  C   UNL     1      -9.357  15.808   0.986  0.00  0.00    +0.007 A 
ATOM     34  C   UNL     1      -9.799  16.700  -0.047  0.00  0.00    -0.029 A 
ATOM     35  C   UNL     1     -10.491  18.020   0.366  0.00  0.00    +0.045 C 
ENDROOT
BRANCH  10   9
ATOM      4  C   UNL     1      -8.708  19.640  -4.795  0.00  0.00    +0.077 A 
ATOM      5  C   UNL     1      -7.333  19.763  -4.405  0.00  0.00    +0.048 A 
ATOM      6  C   UNL     1      -6.889  18.958  -3.333  0.00  0.00    +0.116 A 
ATOM      7  N   UNL     1      -7.762  18.097  -2.705  0.00  0.00    -0.223 NA
ATOM      8  C   UNL     1      -9.083  18.004  -3.105  0.00  0.00    +0.220 A 
ATOM      9  N   UNL     1      -9.977  17.139  -2.493  0.00  0.00    -0.283 N 
ATOM     36  H   UNL     1     -10.945  17.105  -2.813  0.00  0.00    +0.155 HD
ATOM     37  N   UNL     1      -9.532  18.763  -4.126  0.00  0.00    -0.214 NA
BRANCH   4   3
ATOM      1  C   UNL     1      -9.190  21.783  -8.032  0.00  0.00    +0.020 A 
ATOM      2  C   UNL     1      -8.544  21.040  -6.975  0.00  0.00    +0.013 A 
ATOM      3  C   UNL     1      -9.327  20.421  -5.913  0.00  0.00    +0.019 A 
ATOM     38  C   UNL     1     -10.773  20.574  -5.950  0.00  0.00    +0.120 A 
ATOM     39  N   UNL     1     -11.368  21.297  -6.979  0.00  0.00    -0.263 NA
ATOM     40  C   UNL     1     -10.625  21.898  -8.006  0.00  0.00    +0.111 A 
ENDBRANCH   4   3
ENDBRANCH  10   9
BRANCH  12  13
ATOM     13  N   UNL     1      -7.801  12.938  -0.952  0.00  0.00    -0.281 N 
ATOM     14  C   UNL     1      -7.795  12.196  -2.121  0.00  0.00    +0.248 C 
ATOM     30  O   UNL     1      -8.544  12.390  -3.067  0.00  0.00    -0.270 OA
ATOM     31  H   UNL     1      -7.266  12.553  -0.173  0.00  0.00    +0.155 HD
BRANCH  14  15
ATOM     15  C   UNL     1      -6.826  11.065  -2.253  0.00  0.00    +0.037 A 
ATOM     16  C   UNL     1      -6.465  10.235  -1.101  0.00  0.00    +0.013 A 
ATOM     17  C   UNL     1      -5.515   9.162  -1.252  0.00  0.00    +0.005 A 
ATOM     18  C   UNL     1      -4.921   8.911  -2.563  0.00  0.00    -0.033 A 
ATOM     28  C   UNL     1      -5.301   9.746  -3.690  0.00  0.00    +0.005 A 
ATOM     29  C   UNL     1      -6.231  10.800  -3.546  0.00  0.00    +0.013 A 
BRANCH  18  19
ATOM     19  C   UNL     1      -3.883   7.800  -2.812  0.00  0.00    +0.119 C 
BRANCH  19  20
ATOM     20  N   UNL     1      -4.395   6.405  -2.952  0.00  0.00    -0.302 NA
ATOM     21  C   UNL     1      -3.919   5.501  -1.812  0.00  0.00    +0.066 C 
ATOM     22  C   UNL     1      -4.482   4.050  -1.962  0.00  0.00    -0.064 C 
ATOM     23  N   UNL     1      -4.061   3.480  -3.317  0.00  0.00    +0.379 N 
ATOM     24  C   UNL     1      -4.540   2.095  -3.437  0.00  0.00    -0.096 C 
ATOM     25  H   UNL     1      -2.946   3.456  -3.341  0.00  0.00    -0.082 HD
ATOM     26  C   UNL     1      -4.528   4.374  -4.456  0.00  0.00    -0.064 C 
ATOM     27  C   UNL     1      -3.987   5.820  -4.282  0.00  0.00    +0.066 C 
ENDBRANCH  19  20
ENDBRANCH  18  19
ENDBRANCH  14  15
ENDBRANCH  12  13
TORSDOF 6
ENDMDL
MODEL 4
REMARK VINA RESULT:      -7.8      1.036      1.591
REMARK  Name = C:\Users\Docking\Desktop\test protocol\1iep_ligandH.pdb
REMARK  8 active torsions:
REMARK  status: ('A' for Active; 'I' for Inactive)
REMARK    1  A    between atoms: _5  and  _11
REMARK    2  A    between atoms: _19  and  _21
REMARK    3  A    between atoms: _22  and  _66
REMARK    4  A    between atoms: _27  and  _30
REMARK    5  A    between atoms: _32  and  _33
REMARK    6  A    between atoms: _38  and  _43
REMARK    7  A    between atoms: _43  and  _46
REMARK    8  A    between atoms: _53  and  _55
REMARK                            x       y       z     vdW  Elec       q    Type
REMARK                         _______ _______ _______ _____ _____    ______ ____
ROOT
ATOM     10  C   UNL     1     -15.049  21.994  -8.643  0.00  0.00    +0.038 A 
ATOM     11  C   UNL     1     -13.762  21.777  -9.197  0.00  0.00    +0.047 A 
ATOM     12  C   UNL     1     -12.890  22.891  -9.537  0.00  0.00    +0.035 A 
ATOM     32  C   UNL     1     -13.361  24.214  -9.296  0.00  0.00    +0.024 A 
ATOM     33  C   UNL     1     -14.668  24.454  -8.735  0.00  0.00    +0.007 A 
ATOM     34  C   UNL     1     -15.532  23.359  -8.400  0.00  0.00    -0.029 A 
ATOM     35  C   UNL     1     -16.925  23.675  -7.807  0.00  0.00    +0.045 C 
ENDROOT
BRANCH  10   9
ATOM      4  C   UNL     1     -18.455  18.795  -9.737  0.00  0.00    +0.077 A 
ATOM      5  C   UNL     1     -18.690  19.395 -11.019  0.00  0.00    +0.048 A 
ATOM      6  C   UNL     1     -17.918  20.529 -11.356  0.00  0.00    +0.116 A 
ATOM      7  N   UNL     1     -16.984  21.019 -10.469  0.00  0.00    -0.223 NA
ATOM      8  C   UNL     1     -16.784  20.417  -9.240  0.00  0.00    +0.220 A 
ATOM      9  N   UNL     1     -15.844  20.888  -8.336  0.00  0.00    -0.283 N 
ATOM     36  H   UNL     1     -15.732  20.421  -7.436  0.00  0.00    +0.155 HD
ATOM     37  N   UNL     1     -17.509  19.333  -8.894  0.00  0.00    -0.214 NA
BRANCH   4   3
ATOM      1  C   UNL     1     -21.207  16.456  -8.235  0.00  0.00    +0.020 A 
ATOM      2  C   UNL     1     -20.543  17.650  -8.703  0.00  0.00    +0.013 A 
ATOM      3  C   UNL     1     -19.189  17.589  -9.239  0.00  0.00    +0.019 A 
ATOM     38  C   UNL     1     -18.530  16.292  -9.288  0.00  0.00    +0.120 A 
ATOM     39  N   UNL     1     -19.194  15.159  -8.829  0.00  0.00    -0.263 NA
ATOM     40  C   UNL     1     -20.497  15.207  -8.310  0.00  0.00    +0.111 A 
ENDBRANCH   4   3
ENDBRANCH  10   9
BRANCH  12  13
ATOM     13  N   UNL     1     -11.576  22.731 -10.109  0.00  0.00    -0.281 N 
ATOM     14  C   UNL     1     -10.364  22.640  -9.445  0.00  0.00    +0.248 C 
ATOM     30  O   UNL     1     -10.203  22.898  -8.262  0.00  0.00    -0.270 OA
ATOM     31  H   UNL     1     -11.535  22.679 -11.127  0.00  0.00    +0.155 HD
BRANCH  14  15
ATOM     15  C   UNL     1      -9.152  22.216 -10.210  0.00  0.00    +0.037 A 
ATOM     16  C   UNL     1      -8.380  21.035  -9.816  0.00  0.00    +0.013 A 
ATOM     17  C   UNL     1      -7.205  20.657 -10.561  0.00  0.00    +0.005 A 
ATOM     18  C   UNL     1      -6.796  21.461 -11.710  0.00  0.00    -0.033 A 
ATOM     28  C   UNL     1      -7.584  22.625 -12.083  0.00  0.00    +0.005 A 
ATOM     29  C   UNL     1      -8.735  22.999 -11.354  0.00  0.00    +0.013 A 
BRANCH  18  19
ATOM     19  C   UNL     1      -5.545  21.145 -12.550  0.00  0.00    +0.119 C 
BRANCH  19  20
ATOM     20  N   UNL     1      -5.198  22.098 -13.646  0.00  0.00    -0.302 NA
ATOM     21  C   UNL     1      -4.867  21.374 -14.954  0.00  0.00    +0.066 C 
ATOM     22  C   UNL     1      -4.528  22.387 -16.096  0.00  0.00    -0.064 C 
ATOM     23  N   UNL     1      -3.361  23.273 -15.658  0.00  0.00    +0.379 N 
ATOM     24  C   UNL     1      -3.002  24.188 -16.751  0.00  0.00    -0.096 C 
ATOM     25  H   UNL     1      -2.485  22.610 -15.470  0.00  0.00    -0.082 HD
ATOM     26  C   UNL     1      -3.680  23.995 -14.356  0.00  0.00    -0.064 C 
ATOM     27  C   UNL     1      -4.044  22.980 -13.236  0.00  0.00    +0.066 C 
ENDBRANCH  19  20
ENDBRANCH  18  19
ENDBRANCH  14  15
ENDBRANCH  12  13
TORSDOF 6
ENDMDL
MODEL 5
REMARK VINA RESULT:      -7.8      1.673      1.954
REMARK  Name = C:\Users\Docking\Desktop\test protocol\1iep_ligandH.pdb
REMARK  8 active torsions:
REMARK  status: ('A' for Active; 'I' for Inactive)
REMARK    1  A    between atoms: _5  and  _11
REMARK    2  A    between atoms: _19  and  _21
REMARK    3  A    between atoms: _22  and  _66
REMARK    4  A    between atoms: _27  and  _30
REMARK    5  A    between atoms: _32  and  _33
REMARK    6  A    between atoms: _38  and  _43
REMARK    7  A    between atoms: _43  and  _46
REMARK    8  A    between atoms: _53  and  _55
REMARK                            x       y       z     vdW  Elec       q    Type
REMARK                         _______ _______ _______ _____ _____    ______ ____
ROOT
ATOM     10  C   UNL     1     -14.064  20.829  -6.976  0.00  0.00    +0.038 A 
ATOM     11  C   UNL     1     -12.983  20.868  -7.893  0.00  0.00    +0.047 A 
ATOM     12  C   UNL     1     -11.983  21.923  -7.834  0.00  0.00    +0.035 A 
ATOM     32  C   UNL     1     -12.114  22.921  -6.824  0.00  0.00    +0.024 A 
ATOM     33  C   UNL     1     -13.206  22.897  -5.884  0.00  0.00    +0.007 A 
ATOM     34  C   UNL     1     -14.197  21.860  -5.940  0.00  0.00    -0.029 A 
ATOM     35  C   UNL     1     -15.351  21.888  -4.910  0.00  0.00    +0.045 C 
ENDROOT
BRANCH  10   9
ATOM      4  C   UNL     1     -18.040  18.881  -8.829  0.00  0.00    +0.077 A 
ATOM      5  C   UNL     1     -18.299  20.036  -9.640  0.00  0.00    +0.048 A 
ATOM      6  C   UNL     1     -17.388  21.112  -9.546  0.00  0.00    +0.116 A 
ATOM      7  N   UNL     1     -16.303  21.029  -8.700  0.00  0.00    -0.223 NA
ATOM      8  C   UNL     1     -16.084  19.902  -7.930  0.00  0.00    +0.220 A 
ATOM      9  N   UNL     1     -14.995  19.793  -7.079  0.00  0.00    -0.283 N 
ATOM     36  H   UNL     1     -14.872  18.948  -6.522  0.00  0.00    +0.155 HD
ATOM     37  N   UNL     1     -16.940  18.861  -8.001  0.00  0.00    -0.214 NA
BRANCH   4   3
ATOM      1  C   UNL     1     -19.267  15.170  -8.989  0.00  0.00    +0.020 A 
ATOM      2  C   UNL     1     -18.385  16.315  -9.007  0.00  0.00    +0.013 A 
ATOM      3  C   UNL     1     -18.909  17.662  -8.820  0.00  0.00    +0.019 A 
ATOM     38  C   UNL     1     -20.341  17.818  -8.615  0.00  0.00    +0.120 A 
ATOM     39  N   UNL     1     -21.166  16.698  -8.604  0.00  0.00    -0.263 NA
ATOM     40  C   UNL     1     -20.674  15.397  -8.785  0.00  0.00    +0.111 A 
ENDBRANCH   4   3
ENDBRANCH  10   9
BRANCH  12  13
ATOM     13  N   UNL     1     -10.869  22.020  -8.743  0.00  0.00    -0.281 N 
ATOM     14  C   UNL     1      -9.574  21.563  -8.555  0.00  0.00    +0.248 C 
ATOM     30  O   UNL     1      -9.122  21.190  -7.483  0.00  0.00    -0.270 OA
ATOM     31  H   UNL     1     -11.057  22.480  -9.634  0.00  0.00    +0.155 HD
BRANCH  14  15
ATOM     15  C   UNL     1      -8.643  21.530  -9.724  0.00  0.00    +0.037 A 
ATOM     16  C   UNL     1      -7.707  20.420  -9.919  0.00  0.00    +0.013 A 
ATOM     17  C   UNL     1      -6.808  20.421 -11.046  0.00  0.00    +0.005 A 
ATOM     18  C   UNL     1      -6.843  21.537 -11.989  0.00  0.00    -0.033 A 
ATOM     28  C   UNL     1      -7.786  22.622 -11.775  0.00  0.00    +0.005 A 
ATOM     29  C   UNL     1      -8.668  22.625 -10.671  0.00  0.00    +0.013 A 
BRANCH  18  19
ATOM     19  C   UNL     1      -5.906  21.631 -13.207  0.00  0.00    +0.119 C 
BRANCH  19  20
ATOM     20  N   UNL     1      -6.531  21.528 -14.560  0.00  0.00    -0.302 NA
ATOM     21  C   UNL     1      -6.415  20.116 -15.140  0.00  0.00    +0.066 C 
ATOM     22  C   UNL     1      -7.093  20.020 -16.545  0.00  0.00    -0.064 C 
ATOM     23  N   UNL     1      -6.458  21.046 -17.486  0.00  0.00    +0.379 N 
ATOM     24  C   UNL     1      -7.054  20.919 -18.824  0.00  0.00    -0.096 C 
ATOM     25  H   UNL     1      -5.375  20.799 -17.573  0.00  0.00    -0.082 HD
ATOM     26  C   UNL     1      -6.567  22.453 -16.915  0.00  0.00    -0.064 C 
ATOM     27  C   UNL     1      -5.916  22.530 -15.506  0.00  0.00    +0.066 C 
ENDBRANCH  19  20
ENDBRANCH  18  19
ENDBRANCH  14  15
ENDBRANCH  12  13
TORSDOF 6
ENDMDL
