MODEL 1
REMARK VINA RESULT:      -9.3      0.000      0.000
REMARK  Name = C:\Users\Docking\Desktop\test protocol\1iep_ligandH.pdb
REMARK  8 active torsions:
REMARK  status: ('A' for Active; 'I' for Inactive)
REMARK    1  A    between atoms: _5  and  _11
REMARK    2  A    between atoms: _19  and  _21
REMARK    3  A    between atoms: _22  and  _66
REMARK    4  A    between atoms: _27  and  _30
REMARK    5  A    between atoms: _32  and  _33
REMARK    6  A    between atoms: _38  and  _43
REMARK    7  A    between atoms: _43  and  _46
REMARK    8  A    between atoms: _53  and  _55
REMARK                            x       y       z     vdW  Elec       q    Type
REMARK                         _______ _______ _______ _____ _____    ______ ____
ROOT
ATOM     10  C   UNL     1      -9.478  17.553  -4.495  0.00  0.00    +0.038 A 
ATOM     11  C   UNL     1     -10.777  17.719  -5.041  0.00  0.00    +0.047 A 
ATOM     12  C   UNL     1     -11.384  19.036  -5.150  0.00  0.00    +0.035 A 
ATOM     32  C   UNL     1     -10.639  20.164  -4.697  0.00  0.00    +0.024 A 
ATOM     33  C   UNL     1      -9.318  20.013  -4.139  0.00  0.00    +0.007 A 
ATOM     34  C   UNL     1      -8.715  18.716  -4.026  0.00  0.00    -0.029 A 
ATOM     35  C   UNL     1      -7.299  18.613  -3.414  0.00  0.00    +0.045 C 
ENDROOT
BRANCH  10   9
ATOM      4  C   UNL     1      -8.413  13.559  -2.057  0.00  0.00    +0.077 A 
ATOM      5  C   UNL     1      -8.943  14.092  -0.835  0.00  0.00    +0.048 A 
ATOM      6  C   UNL     1      -9.474  15.401  -0.875  0.00  0.00    +0.116 A 
ATOM      7  N   UNL     1      -9.470  16.114  -2.055  0.00  0.00    -0.223 NA
ATOM      8  C   UNL     1      -8.950  15.570  -3.215  0.00  0.00    +0.220 A 
ATOM      9  N   UNL     1      -8.943  16.266  -4.414  0.00  0.00    -0.283 N 
ATOM     36  H   UNL     1      -8.544  15.832  -5.246  0.00  0.00    +0.155 HD
ATOM     37  N   UNL     1      -8.436  14.323  -3.202  0.00  0.00    -0.214 NA
BRANCH   4   3
ATOM      1  C   UNL     1      -7.369  10.050  -3.434  0.00  0.00    +0.020 A 
ATOM      2  C   UNL     1      -7.961  11.366  -3.371  0.00  0.00    +0.013 A 
ATOM      3  C   UNL     1      -7.821  12.189  -2.176  0.00  0.00    +0.019 A 
ATOM     38  C   UNL     1      -7.068  11.646  -1.055  0.00  0.00    +0.120 A 
ATOM     39  N   UNL     1      -6.510  10.375  -1.144  0.00  0.00    -0.263 NA
ATOM     40  C   UNL     1      -6.640   9.573  -2.288  0.00  0.00    +0.111 A 
ENDBRANCH   4   3
ENDBRANCH  10   9
BRANCH  12  13
ATOM     13  N   UNL     1     -12.703  19.266  -5.687  0.00  0.00    -0.281 N 
ATOM     14  C   UNL     1     -13.045  19.952  -6.841  0.00  0.00    +0.248 C 
ATOM     30  O   UNL     1     -12.278  20.661  -7.476  0.00  0.00    -0.270 OA
ATOM     31  H   UNL     1     -13.478  18.874  -5.152  0.00  0.00    +0.155 HD
BRANCH  14  15
ATOM     15  C   UNL     1     -14.444  19.849  -7.355  0.00  0.00    +0.037 A 
ATOM     16  C   UNL     1     -14.753  20.070  -8.770  0.00  0.00    +0.013 A 
ATOM     17  C   UNL     1     -16.114  19.981  -9.236  0.00  0.00    +0.005 A 
ATOM     18  C   UNL     1     -17.177  19.667  -8.285  0.00  0.00    -0.033 A 
ATOM     28  C   UNL     1     -16.843  19.446  -6.888  0.00  0.00    +0.005 A 
ATOM     29  C   UNL     1     -15.510  19.534  -6.427  0.00  0.00    +0.013 A 
BRANCH  18  19
ATOM     19  C   UNL     1     -18.660  19.572  -8.690  0.00  0.00    +0.119 C 
BRANCH  19  20
ATOM     20  N   UNL     1     -19.212  20.677  -9.530  0.00  0.00    -0.302 NA
ATOM     21  C   UNL     1     -18.682  22.047  -9.096  0.00  0.00    +0.066 C 
ATOM     22  C   UNL     1     -19.252  23.189  -9.999  0.00  0.00    -0.064 C 
ATOM     23  N   UNL     1     -20.780  23.159  -9.952  0.00  0.00    +0.379 N 
ATOM     24  C   UNL     1     -21.318  24.268 -10.753  0.00  0.00    -0.096 C 
ATOM     25  H   UNL     1     -21.089  23.326  -8.893  0.00  0.00    -0.082 HD
ATOM     26  C   UNL     1     -21.315  21.800 -10.379  0.00  0.00    -0.064 C 
ATOM     27  C   UNL     1     -20.720  20.669  -9.494  0.00  0.00    +0.066 C 
ENDBRANCH  19  20
ENDBRANCH  18  19
ENDBRANCH  14  15
ENDBRANCH  12  13
TORSDOF 6
ENDMDL
MODEL 2
REMARK VINA RESULT:      -9.3      1.837      2.812
REMARK  Name = C:\Users\Docking\Desktop\test protocol\1iep_ligandH.pdb
REMARK  8 active torsions:
REMARK  status: ('A' for Active; 'I' for Inactive)
REMARK    1  A    between atoms: _5  and  _11
REMARK    2  A    between atoms: _19  and  _21
REMARK    3  A    between atoms: _22  and  _66
REMARK    4  A    between atoms: _27  and  _30
REMARK    5  A    between atoms: _32  and  _33
REMARK    6  A    between atoms: _38  and  _43
REMARK    7  A    between atoms: _43  and  _46
REMARK    8  A    between atoms: _53  and  _55
REMARK                            x       y       z     vdW  Elec       q    Type
REMARK                         _______ _______ _______ _____ _____    ______ ____
ROOT
ATOM     10  C   UNL     1      -9.347  17.569  -4.478  0.00  0.00    +0.038 A 
ATOM     11  C   UNL     1     -10.674  17.731  -4.951  0.00  0.00    +0.047 A 
ATOM     12  C   UNL     1     -11.280  19.049  -5.055  0.00  0.00    +0.035 A 
ATOM     32  C   UNL     1     -10.505  20.182  -4.670  0.00  0.00    +0.024 A 
ATOM     33  C   UNL     1      -9.155  20.035  -4.186  0.00  0.00    +0.007 A 
ATOM     34  C   UNL     1      -8.552  18.737  -4.079  0.00  0.00    -0.029 A 
ATOM     35  C   UNL     1      -7.103  18.639  -3.547  0.00  0.00    +0.045 C 
ENDROOT
BRANCH  10   9
ATOM      4  C   UNL     1      -8.348  13.543  -2.064  0.00  0.00    +0.077 A 
ATOM      5  C   UNL     1      -8.910  14.061  -0.850  0.00  0.00    +0.048 A 
ATOM      6  C   UNL     1      -9.439  15.370  -0.887  0.00  0.00    +0.116 A 
ATOM      7  N   UNL     1      -9.404  16.098  -2.057  0.00  0.00    -0.223 NA
ATOM      8  C   UNL     1      -8.853  15.569  -3.209  0.00  0.00    +0.220 A 
ATOM      9  N   UNL     1      -8.814  16.280  -4.399  0.00  0.00    -0.283 N 
ATOM     36  H   UNL     1      -8.392  15.858  -5.226  0.00  0.00    +0.155 HD
ATOM     37  N   UNL     1      -8.340  14.321  -3.199  0.00  0.00    -0.214 NA
BRANCH   4   3
ATOM      1  C   UNL     1      -7.289  10.041  -3.449  0.00  0.00    +0.020 A 
ATOM      2  C   UNL     1      -7.884  11.356  -3.383  0.00  0.00    +0.013 A 
ATOM      3  C   UNL     1      -7.752  12.174  -2.184  0.00  0.00    +0.019 A 
ATOM     38  C   UNL     1      -7.006  11.629  -1.060  0.00  0.00    +0.120 A 
ATOM     39  N   UNL     1      -6.446  10.358  -1.152  0.00  0.00    -0.263 NA
ATOM     40  C   UNL     1      -6.567   9.561  -2.300  0.00  0.00    +0.111 A 
ENDBRANCH   4   3
ENDBRANCH  10   9
BRANCH  12  13
ATOM     13  N   UNL     1     -12.626  19.275  -5.521  0.00  0.00    -0.281 N 
ATOM     14  C   UNL     1     -13.030  19.920  -6.678  0.00  0.00    +0.248 C 
ATOM     30  O   UNL     1     -12.295  20.592  -7.387  0.00  0.00    -0.270 OA
ATOM     31  H   UNL     1     -13.372  18.915  -4.925  0.00  0.00    +0.155 HD
BRANCH  14  15
ATOM     15  C   UNL     1     -14.459  19.814  -7.103  0.00  0.00    +0.037 A 
ATOM     16  C   UNL     1     -14.853  20.006  -8.501  0.00  0.00    +0.013 A 
ATOM     17  C   UNL     1     -16.241  19.916  -8.880  0.00  0.00    +0.005 A 
ATOM     18  C   UNL     1     -17.245  19.631  -7.858  0.00  0.00    -0.033 A 
ATOM     28  C   UNL     1     -16.826  19.440  -6.480  0.00  0.00    +0.005 A 
ATOM     29  C   UNL     1     -15.467  19.529  -6.104  0.00  0.00    +0.013 A 
BRANCH  18  19
ATOM     19  C   UNL     1     -18.751  19.538  -8.169  0.00  0.00    +0.119 C 
BRANCH  19  20
ATOM     20  N   UNL     1     -19.432  18.243  -7.871  0.00  0.00    -0.302 NA
ATOM     21  C   UNL     1     -20.714  18.067  -8.689  0.00  0.00    +0.066 C 
ATOM     22  C   UNL     1     -21.402  16.697  -8.382  0.00  0.00    -0.064 C 
ATOM     23  N   UNL     1     -21.697  16.602  -6.884  0.00  0.00    +0.379 N 
ATOM     24  C   UNL     1     -22.395  15.339  -6.601  0.00  0.00    -0.096 C 
ATOM     25  H   UNL     1     -22.388  17.437  -6.622  0.00  0.00    -0.082 HD
ATOM     26  C   UNL     1     -20.427  16.778  -6.063  0.00  0.00    -0.064 C 
ATOM     27  C   UNL     1     -19.737  18.130  -6.398  0.00  0.00    +0.066 C 
ENDBRANCH  19  20
ENDBRANCH  18  19
ENDBRANCH  14  15
ENDBRANCH  12  13
TORSDOF 6
ENDMDL
MODEL 3
REMARK VINA RESULT:      -9.0      3.673     12.598
REMARK  Name = C:\Users\Docking\Desktop\test protocol\1iep_ligandH.pdb
REMARK  8 active torsions:
REMARK  status: ('A' for Active; 'I' for Inactive)
REMARK    1  A    between atoms: _5  and  _11
REMARK    2  A    between atoms: _19  and  _21
REMARK    3  A    between atoms: _22  and  _66
REMARK    4  A    between atoms: _27  and  _30
REMARK    5  A    between atoms: _32  and  _33
REMARK    6  A    between atoms: _38  and  _43
REMARK    7  A    between atoms: _43  and  _46
REMARK    8  A    between atoms: _53  and  _55
REMARK                            x       y       z     vdW  Elec       q    Type
REMARK                         _______ _______ _______ _____ _____    ______ ____
ROOT
ATOM     10  C   UNL     1     -18.442  19.282  -8.580  0.00  0.00    +0.038 A 
ATOM     11  C   UNL     1     -17.287  19.181  -7.763  0.00  0.00    +0.047 A 
ATOM     12  C   UNL     1     -15.969  19.518  -8.278  0.00  0.00    +0.035 A 
ATOM     32  C   UNL     1     -15.864  19.958  -9.630  0.00  0.00    +0.024 A 
ATOM     33  C   UNL     1     -17.027  20.066 -10.474  0.00  0.00    +0.007 A 
ATOM     34  C   UNL     1     -18.330  19.732  -9.973  0.00  0.00    -0.029 A 
ATOM     35  C   UNL     1     -19.541  19.861 -10.925  0.00  0.00    +0.045 C 
ENDROOT
BRANCH  10   9
ATOM      4  C   UNL     1     -21.814  16.081  -7.391  0.00  0.00    +0.077 A 
ATOM      5  C   UNL     1     -21.052  14.990  -7.927  0.00  0.00    +0.048 A 
ATOM      6  C   UNL     1     -19.800  15.296  -8.507  0.00  0.00    +0.116 A 
ATOM      7  N   UNL     1     -19.354  16.600  -8.541  0.00  0.00    -0.223 NA
ATOM      8  C   UNL     1     -20.115  17.628  -8.017  0.00  0.00    +0.220 A 
ATOM      9  N   UNL     1     -19.682  18.945  -8.034  0.00  0.00    -0.283 N 
ATOM     36  H   UNL     1     -20.276  19.676  -7.643  0.00  0.00    +0.155 HD
ATOM     37  N   UNL     1     -21.314  17.362  -7.459  0.00  0.00    -0.214 NA
BRANCH   4   3
ATOM      1  C   UNL     1     -25.614  15.362  -6.804  0.00  0.00    +0.020 A 
ATOM      2  C   UNL     1     -24.344  15.506  -7.478  0.00  0.00    +0.013 A 
ATOM      3  C   UNL     1     -23.154  15.917  -6.743  0.00  0.00    +0.019 A 
ATOM     38  C   UNL     1     -23.284  16.176  -5.317  0.00  0.00    +0.120 A 
ATOM     39  N   UNL     1     -24.521  16.031  -4.696  0.00  0.00    -0.263 NA
ATOM     40  C   UNL     1     -25.673  15.638  -5.393  0.00  0.00    +0.111 A 
ENDBRANCH   4   3
ENDBRANCH  10   9
BRANCH  12  13
ATOM     13  N   UNL     1     -14.759  19.427  -7.498  0.00  0.00    -0.281 N 
ATOM     14  C   UNL     1     -14.304  20.304  -6.528  0.00  0.00    +0.248 C 
ATOM     30  O   UNL     1     -14.765  21.419  -6.333  0.00  0.00    -0.270 OA
ATOM     31  H   UNL     1     -14.167  18.618  -7.684  0.00  0.00    +0.155 HD
BRANCH  14  15
ATOM     15  C   UNL     1     -13.162  19.889  -5.658  0.00  0.00    +0.037 A 
ATOM     16  C   UNL     1     -13.386  19.165  -4.404  0.00  0.00    +0.013 A 
ATOM     17  C   UNL     1     -12.267  18.791  -3.575  0.00  0.00    +0.005 A 
ATOM     18  C   UNL     1     -10.913  19.139  -3.999  0.00  0.00    -0.033 A 
ATOM     28  C   UNL     1     -10.719  19.853  -5.250  0.00  0.00    +0.005 A 
ATOM     29  C   UNL     1     -11.813  20.222  -6.065  0.00  0.00    +0.013 A 
BRANCH  18  19
ATOM     19  C   UNL     1      -9.663  18.799  -3.167  0.00  0.00    +0.119 C 
BRANCH  19  20
ATOM     20  N   UNL     1      -9.659  17.493  -2.442  0.00  0.00    -0.302 NA
ATOM     21  C   UNL     1      -8.416  17.329  -1.562  0.00  0.00    +0.066 C 
ATOM     22  C   UNL     1      -8.439  15.968  -0.793  0.00  0.00    -0.064 C 
ATOM     23  N   UNL     1      -8.547  14.819  -1.798  0.00  0.00    +0.379 N 
ATOM     24  C   UNL     1      -8.510  13.536  -1.082  0.00  0.00    -0.096 C 
ATOM     25  H   UNL     1      -7.650  14.864  -2.459  0.00  0.00    -0.082 HD
ATOM     26  C   UNL     1      -9.778  14.976  -2.679  0.00  0.00    -0.064 C 
ATOM     27  C   UNL     1      -9.760  16.345  -3.415  0.00  0.00    +0.066 C 
ENDBRANCH  19  20
ENDBRANCH  18  19
ENDBRANCH  14  15
ENDBRANCH  12  13
TORSDOF 6
ENDMDL
MODEL 4
REMARK VINA RESULT:      -8.8      3.675      6.391
REMARK  Name = C:\Users\Docking\Desktop\test protocol\1iep_ligandH.pdb
REMARK  8 active torsions:
REMARK  status: ('A' for Active; 'I' for Inactive)
REMARK    1  A    between atoms: _5  and  _11
REMARK    2  A    between atoms: _19  and  _21
REMARK    3  A    between atoms: _22  and  _66
REMARK    4  A    between atoms: _27  and  _30
REMARK    5  A    between atoms: _32  and  _33
REMARK    6  A    between atoms: _38  and  _43
REMARK    7  A    between atoms: _43  and  _46
REMARK    8  A    between atoms: _53  and  _55
REMARK                            x       y       z     vdW  Elec       q    Type
REMARK                         _______ _______ _______ _____ _____    ______ ____
ROOT
ATOM     10  C   UNL     1      -8.160  18.458  -4.080  0.00  0.00    +0.038 A 
ATOM     11  C   UNL     1      -9.231  18.847  -4.925  0.00  0.00    +0.047 A 
ATOM     12  C   UNL     1     -10.546  18.238  -4.802  0.00  0.00    +0.035 A 
ATOM     32  C   UNL     1     -10.736  17.238  -3.804  0.00  0.00    +0.024 A 
ATOM     33  C   UNL     1      -9.659  16.830  -2.937  0.00  0.00    +0.007 A 
ATOM     34  C   UNL     1      -8.358  17.426  -3.056  0.00  0.00    -0.029 A 
ATOM     35  C   UNL     1      -7.238  16.945  -2.104  0.00  0.00    +0.045 C 
ENDROOT
BRANCH  10   9
ATOM      4  C   UNL     1      -4.969  21.888  -3.034  0.00  0.00    +0.077 A 
ATOM      5  C   UNL     1      -5.862  22.517  -2.104  0.00  0.00    +0.048 A 
ATOM      6  C   UNL     1      -7.136  21.932  -1.930  0.00  0.00    +0.116 A 
ATOM      7  N   UNL     1      -7.480  20.800  -2.637  0.00  0.00    -0.223 NA
ATOM      8  C   UNL     1      -6.596  20.219  -3.527  0.00  0.00    +0.220 A 
ATOM      9  N   UNL     1      -6.918  19.076  -4.243  0.00  0.00    -0.283 N 
ATOM     36  H   UNL     1      -6.240  18.682  -4.895  0.00  0.00    +0.155 HD
ATOM     37  N   UNL     1      -5.374  20.760  -3.712  0.00  0.00    -0.214 NA
BRANCH   4   3
ATOM      1  C   UNL     1      -1.589  22.682  -4.836  0.00  0.00    +0.020 A 
ATOM      2  C   UNL     1      -2.924  22.179  -4.606  0.00  0.00    +0.013 A 
ATOM      3  C   UNL     1      -3.588  22.386  -3.325  0.00  0.00    +0.019 A 
ATOM     38  C   UNL     1      -2.867  23.112  -2.289  0.00  0.00    +0.120 A 
ATOM     39  N   UNL     1      -1.582  23.582  -2.539  0.00  0.00    -0.263 NA
ATOM     40  C   UNL     1      -0.933  23.388  -3.767  0.00  0.00    +0.111 A 
ENDBRANCH   4   3
ENDBRANCH  10   9
BRANCH  12  13
ATOM     13  N   UNL     1     -11.669  18.586  -5.637  0.00  0.00    -0.281 N 
ATOM     14  C   UNL     1     -12.387  19.770  -5.648  0.00  0.00    +0.248 C 
ATOM     30  O   UNL     1     -12.308  20.635  -4.787  0.00  0.00    -0.270 OA
ATOM     31  H   UNL     1     -11.970  17.873  -6.301  0.00  0.00    +0.155 HD
BRANCH  14  15
ATOM     15  C   UNL     1     -13.343  20.025  -6.768  0.00  0.00    +0.037 A 
ATOM     16  C   UNL     1     -14.742  19.597  -6.685  0.00  0.00    +0.013 A 
ATOM     17  C   UNL     1     -15.639  19.840  -7.787  0.00  0.00    +0.005 A 
ATOM     18  C   UNL     1     -15.139  20.516  -8.982  0.00  0.00    -0.033 A 
ATOM     28  C   UNL     1     -13.748  20.934  -9.035  0.00  0.00    +0.005 A 
ATOM     29  C   UNL     1     -12.866  20.697  -7.957  0.00  0.00    +0.013 A 
BRANCH  18  19
ATOM     19  C   UNL     1     -16.020  20.797 -10.214  0.00  0.00    +0.119 C 
BRANCH  19  20
ATOM     20  N   UNL     1     -17.490  20.925  -9.988  0.00  0.00    -0.302 NA
ATOM     21  C   UNL     1     -18.303  20.251 -11.098  0.00  0.00    +0.066 C 
ATOM     22  C   UNL     1     -19.839  20.375 -10.834  0.00  0.00    -0.064 C 
ATOM     23  N   UNL     1     -20.214  21.852 -10.709  0.00  0.00    +0.379 N 
ATOM     24  C   UNL     1     -21.667  21.975 -10.519  0.00  0.00    -0.096 C 
ATOM     25  H   UNL     1     -19.956  22.349 -11.673  0.00  0.00    -0.082 HD
ATOM     26  C   UNL     1     -19.409  22.531  -9.610  0.00  0.00    -0.064 C 
ATOM     27  C   UNL     1     -17.884  22.377  -9.866  0.00  0.00    +0.066 C 
ENDBRANCH  19  20
ENDBRANCH  18  19
ENDBRANCH  14  15
ENDBRANCH  12  13
TORSDOF 6
ENDMDL
MODEL 5
REMARK VINA RESULT:      -8.8      5.005     12.338
REMARK  Name = C:\Users\Docking\Desktop\test protocol\1iep_ligandH.pdb
REMARK  8 active torsions:
REMARK  status: ('A' for Active; 'I' for Inactive)
REMARK    1  A    between atoms: _5  and  _11
REMARK    2  A    between atoms: _19  and  _21
REMARK    3  A    between atoms: _22  and  _66
REMARK    4  A    between atoms: _27  and  _30
REMARK    5  A    between atoms: _32  and  _33
REMARK    6  A    between atoms: _38  and  _43
REMARK    7  A    between atoms: _43  and  _46
REMARK    8  A    between atoms: _53  and  _55
REMARK                            x       y       z     vdW  Elec       q    Type
REMARK                         _______ _______ _______ _____ _____    ______ ____
ROOT
ATOM     10  C   UNL     1     -14.712  20.573  -8.400  0.00  0.00    +0.038 A 
ATOM     11  C   UNL     1     -13.463  20.282  -7.795  0.00  0.00    +0.047 A 
ATOM     12  C   UNL     1     -12.419  21.290  -7.701  0.00  0.00    +0.035 A 
ATOM     32  C   UNL     1     -12.683  22.587  -8.231  0.00  0.00    +0.024 A 
ATOM     33  C   UNL     1     -13.946  22.900  -8.851  0.00  0.00    +0.007 A 
ATOM     34  C   UNL     1     -14.979  21.909  -8.949  0.00  0.00    -0.029 A 
ATOM     35  C   UNL     1     -16.312  22.298  -9.629  0.00  0.00    +0.045 C 
ENDROOT
BRANCH  10   9
ATOM      4  C   UNL     1     -18.547  18.272  -6.658  0.00  0.00    +0.077 A 
ATOM      5  C   UNL     1     -18.615  19.131  -5.510  0.00  0.00    +0.048 A 
ATOM      6  C   UNL     1     -17.640  20.148  -5.402  0.00  0.00    +0.116 A 
ATOM      7  N   UNL     1     -16.674  20.287  -6.376  0.00  0.00    -0.223 NA
ATOM      8  C   UNL     1     -16.636  19.441  -7.469  0.00  0.00    +0.220 A 
ATOM      9  N   UNL     1     -15.679  19.567  -8.464  0.00  0.00    -0.283 N 
ATOM     36  H   UNL     1     -15.681  18.918  -9.250  0.00  0.00    +0.155 HD
ATOM     37  N   UNL     1     -17.556  18.461  -7.594  0.00  0.00    -0.214 NA
BRANCH   4   3
ATOM      1  C   UNL     1     -20.537  15.384  -8.389  0.00  0.00    +0.020 A 
ATOM      2  C   UNL     1     -19.591  16.458  -8.193  0.00  0.00    +0.013 A 
ATOM      3  C   UNL     1     -19.509  17.154  -6.915  0.00  0.00    +0.019 A 
ATOM     38  C   UNL     1     -20.405  16.735  -5.847  0.00  0.00    +0.120 A 
ATOM     39  N   UNL     1     -21.307  15.698  -6.066  0.00  0.00    -0.263 NA
ATOM     40  C   UNL     1     -21.396  15.022  -7.292  0.00  0.00    +0.111 A 
ENDBRANCH   4   3
ENDBRANCH  10   9
BRANCH  12  13
ATOM     13  N   UNL     1     -11.128  21.050  -7.105  0.00  0.00    -0.281 N 
ATOM     14  C   UNL     1     -10.587  21.645  -5.978  0.00  0.00    +0.248 C 
ATOM     30  O   UNL     1     -11.048  22.636  -5.430  0.00  0.00    -0.270 OA
ATOM     31  H   UNL     1     -10.543  20.357  -7.571  0.00  0.00    +0.155 HD
BRANCH  14  15
ATOM     15  C   UNL     1      -9.345  21.065  -5.381  0.00  0.00    +0.037 A 
ATOM     16  C   UNL     1      -9.039  19.638  -5.503  0.00  0.00    +0.013 A 
ATOM     17  C   UNL     1      -7.843  19.101  -4.903  0.00  0.00    +0.005 A 
ATOM     18  C   UNL     1      -6.944  19.994  -4.176  0.00  0.00    -0.033 A 
ATOM     28  C   UNL     1      -7.270  21.407  -4.074  0.00  0.00    +0.005 A 
ATOM     29  C   UNL     1      -8.441  21.936  -4.660  0.00  0.00    +0.013 A 
BRANCH  18  19
ATOM     19  C   UNL     1      -5.657  19.504  -3.486  0.00  0.00    +0.119 C 
BRANCH  19  20
ATOM     20  N   UNL     1      -5.055  20.395  -2.449  0.00  0.00    -0.302 NA
ATOM     21  C   UNL     1      -3.587  20.714  -2.746  0.00  0.00    +0.066 C 
ATOM     22  C   UNL     1      -2.981  21.664  -1.663  0.00  0.00    -0.064 C 
ATOM     23  N   UNL     1      -3.127  21.020  -0.284  0.00  0.00    +0.379 N 
ATOM     24  C   UNL     1      -2.505  21.886   0.730  0.00  0.00    -0.096 C 
ATOM     25  H   UNL     1      -2.563  20.058  -0.299  0.00  0.00    -0.082 HD
ATOM     26  C   UNL     1      -4.583  20.698   0.019  0.00  0.00    -0.064 C 
ATOM     27  C   UNL     1      -5.185  19.776  -1.079  0.00  0.00    +0.066 C 
ENDBRANCH  19  20
ENDBRANCH  18  19
ENDBRANCH  14  15
ENDBRANCH  12  13
TORSDOF 6
ENDMDL
