MODEL 1
REMARK VINA RESULT:      -7.6      0.000      0.000
REMARK  Name = C:\Users\Docking\Desktop\test protocol\1iep_ligandH.pdb
REMARK  8 active torsions:
REMARK  status: ('A' for Active; 'I' for Inactive)
REMARK    1  A    between atoms: _5  and  _11
REMARK    2  A    between atoms: _19  and  _21
REMARK    3  A    between atoms: _22  and  _66
REMARK    4  A    between atoms: _27  and  _30
REMARK    5  A    between atoms: _32  and  _33
REMARK    6  A    between atoms: _38  and  _43
REMARK    7  A    between atoms: _43  and  _46
REMARK    8  A    between atoms: _53  and  _55
REMARK                            x       y       z     vdW  Elec       q    Type
REMARK                         _______ _______ _______ _____ _____    ______ ____
ROOT
ATOM     10  C   UNL     1     -20.327 -32.254-140.188  0.00  0.00    +0.038 A 
ATOM     11  C   UNL     1     -20.469 -33.604-139.777  0.00  0.00    +0.047 A 
ATOM     12  C   UNL     1     -21.532 -34.007-138.870  0.00  0.00    +0.035 A 
ATOM     32  C   UNL     1     -22.436 -33.009-138.403  0.00  0.00    +0.024 A 
ATOM     33  C   UNL     1     -22.306 -31.631-138.810  0.00  0.00    +0.007 A 
ATOM     34  C   UNL     1     -21.258 -31.228-139.703  0.00  0.00    -0.029 A 
ATOM     35  C   UNL     1     -21.163 -29.736-140.100  0.00  0.00    +0.045 C 
ENDROOT
BRANCH  10   9
ATOM      4  C   UNL     1     -18.419 -31.969-144.583  0.00  0.00    +0.077 A 
ATOM      5  C   UNL     1     -19.580 -32.555-145.189  0.00  0.00    +0.048 A 
ATOM      6  C   UNL     1     -20.643 -32.921-144.335  0.00  0.00    +0.116 A 
ATOM      7  N   UNL     1     -20.542 -32.713-142.976  0.00  0.00    -0.223 NA
ATOM      8  C   UNL     1     -19.408 -32.148-142.423  0.00  0.00    +0.220 A 
ATOM      9  N   UNL     1     -19.288 -31.923-141.061  0.00  0.00    -0.283 N 
ATOM     36  H   UNL     1     -18.432 -31.510-140.691  0.00  0.00    +0.155 HD
ATOM     37  N   UNL     1     -18.378 -31.791-143.218  0.00  0.00    -0.214 NA
BRANCH   4   3
ATOM      1  C   UNL     1     -14.735 -31.126-145.592  0.00  0.00    +0.020 A 
ATOM      2  C   UNL     1     -15.864 -31.565-144.805  0.00  0.00    +0.013 A 
ATOM      3  C   UNL     1     -17.214 -31.526-145.354  0.00  0.00    +0.019 A 
ATOM     38  C   UNL     1     -17.388 -31.035-146.713  0.00  0.00    +0.120 A 
ATOM     39  N   UNL     1     -16.282 -30.618-147.446  0.00  0.00    -0.263 NA
ATOM     40  C   UNL     1     -14.978 -30.649-146.928  0.00  0.00    +0.111 A 
ENDBRANCH   4   3
ENDBRANCH  10   9
BRANCH  12  13
ATOM     13  N   UNL     1     -21.720 -35.361-138.412  0.00  0.00    -0.281 N 
ATOM     14  C   UNL     1     -22.435 -36.376-139.026  0.00  0.00    +0.248 C 
ATOM     30  O   UNL     1     -23.202 -36.213-139.963  0.00  0.00    -0.270 OA
ATOM     31  H   UNL     1     -21.273 -35.600-137.527  0.00  0.00    +0.155 HD
BRANCH  14  15
ATOM     15  C   UNL     1     -22.286 -37.774-138.517  0.00  0.00    +0.037 A 
ATOM     16  C   UNL     1     -21.161 -38.617-138.929  0.00  0.00    +0.013 A 
ATOM     17  C   UNL     1     -21.050 -39.967-138.436  0.00  0.00    +0.005 A 
ATOM     18  C   UNL     1     -22.069 -40.482-137.524  0.00  0.00    -0.033 A 
ATOM     28  C   UNL     1     -23.172 -39.623-137.128  0.00  0.00    +0.005 A 
ATOM     29  C   UNL     1     -23.284 -38.299-137.610  0.00  0.00    +0.013 A 
BRANCH  18  19
ATOM     19  C   UNL     1     -22.043 -41.917-136.966  0.00  0.00    +0.119 C 
BRANCH  19  20
ATOM     20  N   UNL     1     -21.362 -42.960-137.791  0.00  0.00    -0.302 NA
ATOM     21  C   UNL     1     -22.362 -43.911-138.453  0.00  0.00    +0.066 C 
ATOM     22  C   UNL     1     -21.634 -44.982-139.330  0.00  0.00    -0.064 C 
ATOM     23  N   UNL     1     -20.640 -45.757-138.464  0.00  0.00    +0.379 N 
ATOM     24  C   UNL     1     -19.996 -46.803-139.272  0.00  0.00    -0.096 C 
ATOM     25  H   UNL     1     -21.219 -46.262-137.656  0.00  0.00    -0.082 HD
ATOM     26  C   UNL     1     -19.644 -44.818-137.799  0.00  0.00    -0.064 C 
ATOM     27  C   UNL     1     -20.379 -43.741-136.953  0.00  0.00    +0.066 C 
ENDBRANCH  19  20
ENDBRANCH  18  19
ENDBRANCH  14  15
ENDBRANCH  12  13
TORSDOF 6
ENDMDL
MODEL 2
REMARK VINA RESULT:      -7.1     15.265     17.990
REMARK  Name = C:\Users\Docking\Desktop\test protocol\1iep_ligandH.pdb
REMARK  8 active torsions:
REMARK  status: ('A' for Active; 'I' for Inactive)
REMARK    1  A    between atoms: _5  and  _11
REMARK    2  A    between atoms: _19  and  _21
REMARK    3  A    between atoms: _22  and  _66
REMARK    4  A    between atoms: _27  and  _30
REMARK    5  A    between atoms: _32  and  _33
REMARK    6  A    between atoms: _38  and  _43
REMARK    7  A    between atoms: _43  and  _46
REMARK    8  A    between atoms: _53  and  _55
REMARK                            x       y       z     vdW  Elec       q    Type
REMARK                         _______ _______ _______ _____ _____    ______ ____
ROOT
ATOM     10  C   UNL     1      -1.855 -38.788-142.317  0.00  0.00    +0.038 A 
ATOM     11  C   UNL     1      -3.225 -39.151-142.380  0.00  0.00    +0.047 A 
ATOM     12  C   UNL     1      -3.710 -40.088-143.381  0.00  0.00    +0.035 A 
ATOM     32  C   UNL     1      -2.771 -40.640-144.301  0.00  0.00    +0.024 A 
ATOM     33  C   UNL     1      -1.376 -40.281-144.252  0.00  0.00    +0.007 A 
ATOM     34  C   UNL     1      -0.892 -39.355-143.269  0.00  0.00    -0.029 A 
ATOM     35  C   UNL     1       0.614 -39.002-143.267  0.00  0.00    +0.045 C 
ENDROOT
BRANCH  10   9
ATOM      4  C   UNL     1       0.115 -37.766-138.061  0.00  0.00    +0.077 A 
ATOM      5  C   UNL     1       0.319 -39.153-137.756  0.00  0.00    +0.048 A 
ATOM      6  C   UNL     1      -0.104 -40.098-138.718  0.00  0.00    +0.116 A 
ATOM      7  N   UNL     1      -0.685 -39.676-139.894  0.00  0.00    -0.223 NA
ATOM      8  C   UNL     1      -0.869 -38.331-140.156  0.00  0.00    +0.220 A 
ATOM      9  N   UNL     1      -1.444 -37.884-141.335  0.00  0.00    -0.283 N 
ATOM     36  H   UNL     1      -1.569 -36.883-141.488  0.00  0.00    +0.155 HD
ATOM     37  N   UNL     1      -0.475 -37.409-139.253  0.00  0.00    -0.214 NA
BRANCH   4   3
ATOM      1  C   UNL     1       0.026 -34.536-135.857  0.00  0.00    +0.020 A 
ATOM      2  C   UNL     1      -0.407 -35.593-136.742  0.00  0.00    +0.013 A 
ATOM      3  C   UNL     1       0.512 -36.649-137.148  0.00  0.00    +0.019 A 
ATOM     38  C   UNL     1       1.873 -36.606-136.635  0.00  0.00    +0.120 A 
ATOM     39  N   UNL     1       2.262 -35.576-135.785  0.00  0.00    -0.263 NA
ATOM     40  C   UNL     1       1.387 -34.553-135.389  0.00  0.00    +0.111 A 
ENDBRANCH   4   3
ENDBRANCH  10   9
BRANCH  12  13
ATOM     13  N   UNL     1      -5.090 -40.488-143.498  0.00  0.00    -0.281 N 
ATOM     14  C   UNL     1      -6.106 -39.849-144.191  0.00  0.00    +0.248 C 
ATOM     30  O   UNL     1      -6.028 -38.716-144.642  0.00  0.00    -0.270 OA
ATOM     31  H   UNL     1      -5.350 -41.346-143.011  0.00  0.00    +0.155 HD
BRANCH  14  15
ATOM     15  C   UNL     1      -7.399 -40.568-144.401  0.00  0.00    +0.037 A 
ATOM     16  C   UNL     1      -8.672 -39.844-144.449  0.00  0.00    +0.013 A 
ATOM     17  C   UNL     1      -9.907 -40.563-144.636  0.00  0.00    +0.005 A 
ATOM     18  C   UNL     1      -9.875 -42.017-144.777  0.00  0.00    -0.033 A 
ATOM     28  C   UNL     1      -8.598 -42.710-144.731  0.00  0.00    +0.005 A 
ATOM     29  C   UNL     1      -7.385 -42.008-144.547  0.00  0.00    +0.013 A 
BRANCH  18  19
ATOM     19  C   UNL     1     -11.146 -42.868-144.959  0.00  0.00    +0.119 C 
BRANCH  19  20
ATOM     20  N   UNL     1     -11.242 -44.130-144.167  0.00  0.00    -0.302 NA
ATOM     21  C   UNL     1     -11.203 -45.373-145.060  0.00  0.00    +0.066 C 
ATOM     22  C   UNL     1     -11.282 -46.685-144.214  0.00  0.00    -0.064 C 
ATOM     23  N   UNL     1     -12.556 -46.667-143.367  0.00  0.00    +0.379 N 
ATOM     24  C   UNL     1     -12.663 -47.925-142.613  0.00  0.00    -0.096 C 
ATOM     25  H   UNL     1     -13.425 -46.615-144.064  0.00  0.00    -0.082 HD
ATOM     26  C   UNL     1     -12.604 -45.432-142.477  0.00  0.00    -0.064 C 
ATOM     27  C   UNL     1     -12.495 -44.135-143.326  0.00  0.00    +0.066 C 
ENDBRANCH  19  20
ENDBRANCH  18  19
ENDBRANCH  14  15
ENDBRANCH  12  13
TORSDOF 6
ENDMDL
MODEL 3
REMARK VINA RESULT:      -7.0     27.234     29.121
REMARK  Name = C:\Users\Docking\Desktop\test protocol\1iep_ligandH.pdb
REMARK  8 active torsions:
REMARK  status: ('A' for Active; 'I' for Inactive)
REMARK    1  A    between atoms: _5  and  _11
REMARK    2  A    between atoms: _19  and  _21
REMARK    3  A    between atoms: _22  and  _66
REMARK    4  A    between atoms: _27  and  _30
REMARK    5  A    between atoms: _32  and  _33
REMARK    6  A    between atoms: _38  and  _43
REMARK    7  A    between atoms: _43  and  _46
REMARK    8  A    between atoms: _53  and  _55
REMARK                            x       y       z     vdW  Elec       q    Type
REMARK                         _______ _______ _______ _____ _____    ______ ____
ROOT
ATOM     10  C   UNL     1     -12.540 -47.406-116.516  0.00  0.00    +0.038 A 
ATOM     11  C   UNL     1     -11.767 -48.113-117.473  0.00  0.00    +0.047 A 
ATOM     12  C   UNL     1     -12.137 -49.454-117.898  0.00  0.00    +0.035 A 
ATOM     32  C   UNL     1     -13.303 -50.045-117.329  0.00  0.00    +0.024 A 
ATOM     33  C   UNL     1     -14.099 -49.341-116.354  0.00  0.00    +0.007 A 
ATOM     34  C   UNL     1     -13.738 -48.019-115.930  0.00  0.00    -0.029 A 
ATOM     35  C   UNL     1     -14.625 -47.315-114.877  0.00  0.00    +0.045 C 
ENDROOT
BRANCH  10   9
ATOM      4  C   UNL     1     -10.227 -44.370-113.606  0.00  0.00    +0.077 A 
ATOM      5  C   UNL     1      -9.805 -45.431-112.737  0.00  0.00    +0.048 A 
ATOM      6  C   UNL     1     -10.211 -46.743-113.071  0.00  0.00    +0.116 A 
ATOM      7  N   UNL     1     -10.980 -46.965-114.192  0.00  0.00    -0.223 NA
ATOM      8  C   UNL     1     -11.371 -45.919-115.008  0.00  0.00    +0.220 A 
ATOM      9  N   UNL     1     -12.138 -46.121-116.145  0.00  0.00    -0.283 N 
ATOM     36  H   UNL     1     -12.412 -45.323-116.717  0.00  0.00    +0.155 HD
ATOM     37  N   UNL     1     -10.998 -44.657-114.710  0.00  0.00    -0.214 NA
BRANCH   4   3
ATOM      1  C   UNL     1      -8.817 -40.755-114.103  0.00  0.00    +0.020 A 
ATOM      2  C   UNL     1      -9.130 -42.142-114.361  0.00  0.00    +0.013 A 
ATOM      3  C   UNL     1      -9.876 -42.931-113.389  0.00  0.00    +0.019 A 
ATOM     38  C   UNL     1     -10.295 -42.281-112.156  0.00  0.00    +0.120 A 
ATOM     39  N   UNL     1      -9.978 -40.945-111.935  0.00  0.00    -0.263 NA
ATOM     40  C   UNL     1      -9.259 -40.176-112.862  0.00  0.00    +0.111 A 
ENDBRANCH   4   3
ENDBRANCH  10   9
BRANCH  12  13
ATOM     13  N   UNL     1     -11.386 -50.223-118.859  0.00  0.00    -0.281 N 
ATOM     14  C   UNL     1     -11.710 -50.482-120.181  0.00  0.00    +0.248 C 
ATOM     30  O   UNL     1     -12.805 -50.269-120.679  0.00  0.00    -0.270 OA
ATOM     31  H   UNL     1     -10.511 -50.624-118.525  0.00  0.00    +0.155 HD
BRANCH  14  15
ATOM     15  C   UNL     1     -10.671 -51.078-121.075  0.00  0.00    +0.037 A 
ATOM     16  C   UNL     1     -10.838 -52.415-121.649  0.00  0.00    +0.013 A 
ATOM     17  C   UNL     1      -9.812 -52.973-122.494  0.00  0.00    +0.005 A 
ATOM     18  C   UNL     1      -8.610 -52.192-122.772  0.00  0.00    -0.033 A 
ATOM     28  C   UNL     1      -8.472 -50.865-122.194  0.00  0.00    +0.005 A 
ATOM     29  C   UNL     1      -9.475 -50.315-121.364  0.00  0.00    +0.013 A 
BRANCH  18  19
ATOM     19  C   UNL     1      -7.455 -52.716-123.646  0.00  0.00    +0.119 C 
BRANCH  19  20
ATOM     20  N   UNL     1      -6.085 -52.698-123.052  0.00  0.00    -0.302 NA
ATOM     21  C   UNL     1      -5.152 -51.733-123.789  0.00  0.00    +0.066 C 
ATOM     22  C   UNL     1      -3.729 -51.710-123.140  0.00  0.00    -0.064 C 
ATOM     23  N   UNL     1      -3.151 -53.127-123.135  0.00  0.00    +0.379 N 
ATOM     24  C   UNL     1      -1.791 -53.099-122.579  0.00  0.00    -0.096 C 
ATOM     25  H   UNL     1      -3.076 -53.464-124.195  0.00  0.00    -0.082 HD
ATOM     26  C   UNL     1      -4.074 -54.093-122.407  0.00  0.00    -0.064 C 
ATOM     27  C   UNL     1      -5.493 -54.086-123.041  0.00  0.00    +0.066 C 
ENDBRANCH  19  20
ENDBRANCH  18  19
ENDBRANCH  14  15
ENDBRANCH  12  13
TORSDOF 6
ENDMDL
MODEL 4
REMARK VINA RESULT:      -6.9     29.862     32.740
REMARK  Name = C:\Users\Docking\Desktop\test protocol\1iep_ligandH.pdb
REMARK  8 active torsions:
REMARK  status: ('A' for Active; 'I' for Inactive)
REMARK    1  A    between atoms: _5  and  _11
REMARK    2  A    between atoms: _19  and  _21
REMARK    3  A    between atoms: _22  and  _66
REMARK    4  A    between atoms: _27  and  _30
REMARK    5  A    between atoms: _32  and  _33
REMARK    6  A    between atoms: _38  and  _43
REMARK    7  A    between atoms: _43  and  _46
REMARK    8  A    between atoms: _53  and  _55
REMARK                            x       y       z     vdW  Elec       q    Type
REMARK                         _______ _______ _______ _____ _____    ______ ____
ROOT
ATOM     10  C   UNL     1       0.434 -18.122-126.937  0.00  0.00    +0.038 A 
ATOM     11  C   UNL     1       1.266 -18.936-126.127  0.00  0.00    +0.047 A 
ATOM     12  C   UNL     1       2.155 -18.352-125.135  0.00  0.00    +0.035 A 
ATOM     32  C   UNL     1       2.170 -16.933-124.992  0.00  0.00    +0.024 A 
ATOM     33  C   UNL     1       1.331 -16.090-125.808  0.00  0.00    +0.007 A 
ATOM     34  C   UNL     1       0.454 -16.661-126.790  0.00  0.00    -0.029 A 
ATOM     35  C   UNL     1      -0.418 -15.709-127.641  0.00  0.00    +0.045 C 
ENDROOT
BRANCH  10   9
ATOM      4  C   UNL     1      -0.368 -20.107-131.232  0.00  0.00    +0.077 A 
ATOM      5  C   UNL     1       0.983 -19.878-131.656  0.00  0.00    +0.048 A 
ATOM      6  C   UNL     1       1.851 -19.239-130.742  0.00  0.00    +0.116 A 
ATOM      7  N   UNL     1       1.391 -18.863-129.498  0.00  0.00    -0.223 NA
ATOM      8  C   UNL     1       0.081 -19.098-129.121  0.00  0.00    +0.220 A 
ATOM      9  N   UNL     1      -0.401 -18.736-127.873  0.00  0.00    -0.283 N 
ATOM     36  H   UNL     1      -1.375 -18.920-127.636  0.00  0.00    +0.155 HD
ATOM     37  N   UNL     1      -0.767 -19.705-129.977  0.00  0.00    -0.214 NA
BRANCH   4   3
ATOM      1  C   UNL     1      -3.784 -21.147-132.828  0.00  0.00    +0.020 A 
ATOM      2  C   UNL     1      -2.826 -20.475-131.981  0.00  0.00    +0.013 A 
ATOM      3  C   UNL     1      -1.403 -20.774-132.084  0.00  0.00    +0.019 A 
ATOM     38  C   UNL     1      -0.980 -21.765-133.062  0.00  0.00    +0.120 A 
ATOM     39  N   UNL     1      -1.926 -22.397-133.863  0.00  0.00    -0.263 NA
ATOM     40  C   UNL     1      -3.298 -22.118-133.772  0.00  0.00    +0.111 A 
ENDBRANCH   4   3
ENDBRANCH  10   9
BRANCH  12  13
ATOM     13  N   UNL     1       3.028 -19.128-124.289  0.00  0.00    -0.281 N 
ATOM     14  C   UNL     1       4.398 -19.297-124.407  0.00  0.00    +0.248 C 
ATOM     30  O   UNL     1       5.052 -18.976-125.388  0.00  0.00    -0.270 OA
ATOM     31  H   UNL     1       2.582 -19.611-123.510  0.00  0.00    +0.155 HD
BRANCH  14  15
ATOM     15  C   UNL     1       5.148 -19.925-123.277  0.00  0.00    +0.037 A 
ATOM     16  C   UNL     1       6.034 -19.134-122.420  0.00  0.00    +0.013 A 
ATOM     17  C   UNL     1       6.759 -19.769-121.347  0.00  0.00    +0.005 A 
ATOM     18  C   UNL     1       6.598 -21.204-121.125  0.00  0.00    -0.033 A 
ATOM     28  C   UNL     1       5.708 -21.964-121.988  0.00  0.00    +0.005 A 
ATOM     29  C   UNL     1       4.997 -21.345-123.040  0.00  0.00    +0.013 A 
BRANCH  18  19
ATOM     19  C   UNL     1       7.348 -21.968-120.018  0.00  0.00    +0.119 C 
BRANCH  19  20
ATOM     20  N   UNL     1       6.822 -21.846-118.626  0.00  0.00    -0.302 NA
ATOM     21  C   UNL     1       7.880 -22.202-117.579  0.00  0.00    +0.066 C 
ATOM     22  C   UNL     1       7.320 -22.047-116.127  0.00  0.00    -0.064 C 
ATOM     23  N   UNL     1       6.080 -22.927-115.966  0.00  0.00    +0.379 N 
ATOM     24  C   UNL     1       5.584 -22.828-114.585  0.00  0.00    -0.096 C 
ATOM     25  H   UNL     1       6.390 -23.984-116.139  0.00  0.00    -0.082 HD
ATOM     26  C   UNL     1       5.023 -22.581-117.005  0.00  0.00    -0.064 C 
ATOM     27  C   UNL     1       5.599 -22.710-118.443  0.00  0.00    +0.066 C 
ENDBRANCH  19  20
ENDBRANCH  18  19
ENDBRANCH  14  15
ENDBRANCH  12  13
TORSDOF 6
ENDMDL
MODEL 5
REMARK VINA RESULT:      -6.9     26.678     29.178
REMARK  Name = C:\Users\Docking\Desktop\test protocol\1iep_ligandH.pdb
REMARK  8 active torsions:
REMARK  status: ('A' for Active; 'I' for Inactive)
REMARK    1  A    between atoms: _5  and  _11
REMARK    2  A    between atoms: _19  and  _21
REMARK    3  A    between atoms: _22  and  _66
REMARK    4  A    between atoms: _27  and  _30
REMARK    5  A    between atoms: _32  and  _33
REMARK    6  A    between atoms: _38  and  _43
REMARK    7  A    between atoms: _43  and  _46
REMARK    8  A    between atoms: _53  and  _55
REMARK                            x       y       z     vdW  Elec       q    Type
REMARK                         _______ _______ _______ _____ _____    ______ ____
ROOT
ATOM     10  C   UNL     1     -11.127 -50.925-121.481  0.00  0.00    +0.038 A 
ATOM     11  C   UNL     1     -10.940 -49.856-120.569  0.00  0.00    +0.047 A 
ATOM     12  C   UNL     1     -11.962 -49.512-119.592  0.00  0.00    +0.035 A 
ATOM     32  C   UNL     1     -13.162 -50.280-119.571  0.00  0.00    +0.024 A 
ATOM     33  C   UNL     1     -13.369 -51.370-120.492  0.00  0.00    +0.007 A 
ATOM     34  C   UNL     1     -12.366 -51.713-121.459  0.00  0.00    -0.029 A 
ATOM     35  C   UNL     1     -12.644 -52.887-122.426  0.00  0.00    +0.045 C 
ENDROOT
BRANCH  10   9
ATOM      4  C   UNL     1      -6.685 -52.391-122.556  0.00  0.00    +0.077 A 
ATOM      5  C   UNL     1      -6.348 -52.576-121.174  0.00  0.00    +0.048 A 
ATOM      6  C   UNL     1      -7.343 -52.275-120.217  0.00  0.00    +0.116 A 
ATOM      7  N   UNL     1      -8.580 -51.825-120.624  0.00  0.00    -0.223 NA
ATOM      8  C   UNL     1      -8.872 -51.656-121.965  0.00  0.00    +0.220 A 
ATOM      9  N   UNL     1     -10.113 -51.212-122.397  0.00  0.00    -0.283 N 
ATOM     36  H   UNL     1     -10.286 -51.093-123.395  0.00  0.00    +0.155 HD
ATOM     37  N   UNL     1      -7.938 -51.934-122.898  0.00  0.00    -0.214 NA
BRANCH   4   3
ATOM      1  C   UNL     1      -3.589 -52.286-124.945  0.00  0.00    +0.020 A 
ATOM      2  C   UNL     1      -4.465 -51.981-123.837  0.00  0.00    +0.013 A 
ATOM      3  C   UNL     1      -5.741 -52.668-123.685  0.00  0.00    +0.019 A 
ATOM     38  C   UNL     1      -6.104 -53.667-124.678  0.00  0.00    +0.120 A 
ATOM     39  N   UNL     1      -5.242 -53.940-125.735  0.00  0.00    -0.263 NA
ATOM     40  C   UNL     1      -4.012 -53.283-125.893  0.00  0.00    +0.111 A 
ENDBRANCH   4   3
ENDBRANCH  10   9
BRANCH  12  13
ATOM     13  N   UNL     1     -11.831 -48.431-118.646  0.00  0.00    -0.281 N 
ATOM     14  C   UNL     1     -11.799 -48.509-117.264  0.00  0.00    +0.248 C 
ATOM     30  O   UNL     1     -12.094 -49.506-116.621  0.00  0.00    -0.270 OA
ATOM     31  H   UNL     1     -11.753 -47.495-119.045  0.00  0.00    +0.155 HD
BRANCH  14  15
ATOM     15  C   UNL     1     -11.395 -47.301-116.482  0.00  0.00    +0.037 A 
ATOM     16  C   UNL     1     -11.239 -45.995-117.127  0.00  0.00    +0.013 A 
ATOM     17  C   UNL     1     -10.832 -44.850-116.353  0.00  0.00    +0.005 A 
ATOM     18  C   UNL     1     -10.579 -45.006-114.922  0.00  0.00    -0.033 A 
ATOM     28  C   UNL     1     -10.746 -46.311-114.306  0.00  0.00    +0.005 A 
ATOM     29  C   UNL     1     -11.144 -47.437-115.063  0.00  0.00    +0.013 A 
BRANCH  18  19
ATOM     19  C   UNL     1     -10.120 -43.843-114.022  0.00  0.00    +0.119 C 
BRANCH  19  20
ATOM     20  N   UNL     1     -10.831 -43.664-112.721  0.00  0.00    -0.302 NA
ATOM     21  C   UNL     1     -12.351 -43.611-112.899  0.00  0.00    +0.066 C 
ATOM     22  C   UNL     1     -13.079 -43.446-111.525  0.00  0.00    -0.064 C 
ATOM     23  N   UNL     1     -12.571 -42.182-110.830  0.00  0.00    +0.379 N 
ATOM     24  C   UNL     1     -13.295 -41.993-109.565  0.00  0.00    -0.096 C 
ATOM     25  H   UNL     1     -12.809 -41.315-111.489  0.00  0.00    -0.082 HD
ATOM     26  C   UNL     1     -11.060 -42.225-110.652  0.00  0.00    -0.064 C 
ATOM     27  C   UNL     1     -10.347 -42.419-112.019  0.00  0.00    +0.066 C 
ENDBRANCH  19  20
ENDBRANCH  18  19
ENDBRANCH  14  15
ENDBRANCH  12  13
TORSDOF 6
ENDMDL
