MODEL 1
REMARK VINA RESULT:      -8.2      0.000      0.000
REMARK  Name = C:\Users\Docking\Desktop\test protocol\1iep_ligandH.pdb
REMARK  8 active torsions:
REMARK  status: ('A' for Active; 'I' for Inactive)
REMARK    1  A    between atoms: _5  and  _11
REMARK    2  A    between atoms: _19  and  _21
REMARK    3  A    between atoms: _22  and  _66
REMARK    4  A    between atoms: _27  and  _30
REMARK    5  A    between atoms: _32  and  _33
REMARK    6  A    between atoms: _38  and  _43
REMARK    7  A    between atoms: _43  and  _46
REMARK    8  A    between atoms: _53  and  _55
REMARK                            x       y       z     vdW  Elec       q    Type
REMARK                         _______ _______ _______ _____ _____    ______ ____
ROOT
ATOM     10  C   UNL     1       6.437  33.520  19.955  0.00  0.00    +0.038 A 
ATOM     11  C   UNL     1       5.378  33.351  20.883  0.00  0.00    +0.047 A 
ATOM     12  C   UNL     1       5.523  32.483  22.040  0.00  0.00    +0.035 A 
ATOM     32  C   UNL     1       6.763  31.803  22.224  0.00  0.00    +0.024 A 
ATOM     33  C   UNL     1       7.849  31.962  21.289  0.00  0.00    +0.007 A 
ATOM     34  C   UNL     1       7.711  32.816  20.144  0.00  0.00    -0.029 A 
ATOM     35  C   UNL     1       8.906  32.944  19.172  0.00  0.00    +0.045 C 
ENDROOT
BRANCH  10   9
ATOM      4  C   UNL     1       5.648  37.851  18.041  0.00  0.00    +0.077 A 
ATOM      5  C   UNL     1       5.591  38.476  19.331  0.00  0.00    +0.048 A 
ATOM      6  C   UNL     1       5.763  37.646  20.462  0.00  0.00    +0.116 A 
ATOM      7  N   UNL     1       5.975  36.294  20.303  0.00  0.00    -0.223 NA
ATOM      8  C   UNL     1       6.022  35.723  19.044  0.00  0.00    +0.220 A 
ATOM      9  N   UNL     1       6.242  34.367  18.861  0.00  0.00    -0.283 N 
ATOM     36  H   UNL     1       6.263  33.983  17.916  0.00  0.00    +0.155 HD
ATOM     37  N   UNL     1       5.860  36.493  17.949  0.00  0.00    -0.214 NA
BRANCH   4   3
ATOM      1  C   UNL     1       5.732  40.650  15.311  0.00  0.00    +0.020 A 
ATOM      2  C   UNL     1       5.909  39.979  16.577  0.00  0.00    +0.013 A 
ATOM      3  C   UNL     1       5.488  38.594  16.751  0.00  0.00    +0.019 A 
ATOM     38  C   UNL     1       4.888  37.912  15.614  0.00  0.00    +0.120 A 
ATOM     39  N   UNL     1       4.729  38.585  14.407  0.00  0.00    -0.263 NA
ATOM     40  C   UNL     1       5.129  39.918  14.228  0.00  0.00    +0.111 A 
ENDBRANCH   4   3
ENDBRANCH  10   9
BRANCH  12  13
ATOM     13  N   UNL     1       4.480  32.266  23.012  0.00  0.00    -0.281 N 
ATOM     14  C   UNL     1       4.243  32.973  24.179  0.00  0.00    +0.248 C 
ATOM     30  O   UNL     1       5.026  33.770  24.676  0.00  0.00    -0.270 OA
ATOM     31  H   UNL     1       3.839  31.498  22.816  0.00  0.00    +0.155 HD
BRANCH  14  15
ATOM     15  C   UNL     1       2.957  32.754  24.909  0.00  0.00    +0.037 A 
ATOM     16  C   UNL     1       2.295  31.447  24.905  0.00  0.00    +0.013 A 
ATOM     17  C   UNL     1       1.047  31.266  25.602  0.00  0.00    +0.005 A 
ATOM     18  C   UNL     1       0.452  32.397  26.311  0.00  0.00    -0.033 A 
ATOM     28  C   UNL     1       1.133  33.681  26.303  0.00  0.00    +0.005 A 
ATOM     29  C   UNL     1       2.356  33.862  25.619  0.00  0.00    +0.013 A 
BRANCH  18  19
ATOM     19  C   UNL     1      -0.888  32.301  27.064  0.00  0.00    +0.119 C 
BRANCH  19  20
ATOM     20  N   UNL     1      -1.302  30.953  27.554  0.00  0.00    -0.302 NA
ATOM     21  C   UNL     1      -2.720  30.589  27.105  0.00  0.00    +0.066 C 
ATOM     22  C   UNL     1      -3.129  29.166  27.607  0.00  0.00    -0.064 C 
ATOM     23  N   UNL     1      -3.013  29.113  29.131  0.00  0.00    +0.379 N 
ATOM     24  C   UNL     1      -3.452  27.795  29.612  0.00  0.00    -0.096 C 
ATOM     25  H   UNL     1      -3.710  29.875  29.550  0.00  0.00    -0.082 HD
ATOM     26  C   UNL     1      -1.606  29.476  29.586  0.00  0.00    -0.064 C 
ATOM     27  C   UNL     1      -1.199  30.880  29.057  0.00  0.00    +0.066 C 
ENDBRANCH  19  20
ENDBRANCH  18  19
ENDBRANCH  14  15
ENDBRANCH  12  13
TORSDOF 6
ENDMDL
MODEL 2
REMARK VINA RESULT:      -8.0      1.013      1.734
REMARK  Name = C:\Users\Docking\Desktop\test protocol\1iep_ligandH.pdb
REMARK  8 active torsions:
REMARK  status: ('A' for Active; 'I' for Inactive)
REMARK    1  A    between atoms: _5  and  _11
REMARK    2  A    between atoms: _19  and  _21
REMARK    3  A    between atoms: _22  and  _66
REMARK    4  A    between atoms: _27  and  _30
REMARK    5  A    between atoms: _32  and  _33
REMARK    6  A    between atoms: _38  and  _43
REMARK    7  A    between atoms: _43  and  _46
REMARK    8  A    between atoms: _53  and  _55
REMARK                            x       y       z     vdW  Elec       q    Type
REMARK                         _______ _______ _______ _____ _____    ______ ____
ROOT
ATOM     10  C   UNL     1       6.410  33.561  19.975  0.00  0.00    +0.038 A 
ATOM     11  C   UNL     1       5.356  33.418  20.913  0.00  0.00    +0.047 A 
ATOM     12  C   UNL     1       5.494  32.552  22.074  0.00  0.00    +0.035 A 
ATOM     32  C   UNL     1       6.722  31.849  22.250  0.00  0.00    +0.024 A 
ATOM     33  C   UNL     1       7.803  31.983  21.307  0.00  0.00    +0.007 A 
ATOM     34  C   UNL     1       7.672  32.833  20.158  0.00  0.00    -0.029 A 
ATOM     35  C   UNL     1       8.862  32.933  19.176  0.00  0.00    +0.045 C 
ENDROOT
BRANCH  10   9
ATOM      4  C   UNL     1       5.641  37.890  18.049  0.00  0.00    +0.077 A 
ATOM      5  C   UNL     1       5.579  38.518  19.338  0.00  0.00    +0.048 A 
ATOM      6  C   UNL     1       5.743  37.690  20.471  0.00  0.00    +0.116 A 
ATOM      7  N   UNL     1       5.953  36.337  20.316  0.00  0.00    -0.223 NA
ATOM      8  C   UNL     1       6.006  35.763  19.059  0.00  0.00    +0.220 A 
ATOM      9  N   UNL     1       6.224  34.406  18.879  0.00  0.00    -0.283 N 
ATOM     36  H   UNL     1       6.248  34.020  17.935  0.00  0.00    +0.155 HD
ATOM     37  N   UNL     1       5.850  36.532  17.961  0.00  0.00    -0.214 NA
BRANCH   4   3
ATOM      1  C   UNL     1       5.761  40.678  15.308  0.00  0.00    +0.020 A 
ATOM      2  C   UNL     1       5.930  40.008  16.577  0.00  0.00    +0.013 A 
ATOM      3  C   UNL     1       5.489  38.631  16.757  0.00  0.00    +0.019 A 
ATOM     38  C   UNL     1       4.877  37.954  15.624  0.00  0.00    +0.120 A 
ATOM     39  N   UNL     1       4.726  38.625  14.414  0.00  0.00    -0.263 NA
ATOM     40  C   UNL     1       5.145  39.951  14.230  0.00  0.00    +0.111 A 
ENDBRANCH   4   3
ENDBRANCH  10   9
BRANCH  12  13
ATOM     13  N   UNL     1       4.455  32.360  23.055  0.00  0.00    -0.281 N 
ATOM     14  C   UNL     1       4.189  33.131  24.175  0.00  0.00    +0.248 C 
ATOM     30  O   UNL     1       4.941  33.984  24.622  0.00  0.00    -0.270 OA
ATOM     31  H   UNL     1       3.841  31.559  22.906  0.00  0.00    +0.155 HD
BRANCH  14  15
ATOM     15  C   UNL     1       2.908  32.912  24.914  0.00  0.00    +0.037 A 
ATOM     16  C   UNL     1       2.230  34.014  25.602  0.00  0.00    +0.013 A 
ATOM     17  C   UNL     1       1.005  33.773  26.322  0.00  0.00    +0.005 A 
ATOM     18  C   UNL     1       0.448  32.422  26.355  0.00  0.00    -0.033 A 
ATOM     28  C   UNL     1       1.138  31.349  25.659  0.00  0.00    +0.005 A 
ATOM     29  C   UNL     1       2.340  31.582  24.954  0.00  0.00    +0.013 A 
BRANCH  18  19
ATOM     19  C   UNL     1      -0.843  32.069  27.116  0.00  0.00    +0.119 C 
BRANCH  19  20
ATOM     20  N   UNL     1      -0.694  31.476  28.479  0.00  0.00    -0.302 NA
ATOM     21  C   UNL     1       0.705  31.710  29.057  0.00  0.00    +0.066 C 
ATOM     22  C   UNL     1       0.836  31.102  30.491  0.00  0.00    -0.064 C 
ATOM     23  N   UNL     1       0.514  29.608  30.441  0.00  0.00    +0.379 N 
ATOM     24  C   UNL     1       0.693  29.022  31.778  0.00  0.00    -0.096 C 
ATOM     25  H   UNL     1       1.252  29.126  29.759  0.00  0.00    -0.082 HD
ATOM     26  C   UNL     1      -0.874  29.366  29.865  0.00  0.00    -0.064 C 
ATOM     27  C   UNL     1      -1.004  29.999  28.451  0.00  0.00    +0.066 C 
ENDBRANCH  19  20
ENDBRANCH  18  19
ENDBRANCH  14  15
ENDBRANCH  12  13
TORSDOF 6
ENDMDL
MODEL 3
REMARK VINA RESULT:      -8.0      7.463     12.777
REMARK  Name = C:\Users\Docking\Desktop\test protocol\1iep_ligandH.pdb
REMARK  8 active torsions:
REMARK  status: ('A' for Active; 'I' for Inactive)
REMARK    1  A    between atoms: _5  and  _11
REMARK    2  A    between atoms: _19  and  _21
REMARK    3  A    between atoms: _22  and  _66
REMARK    4  A    between atoms: _27  and  _30
REMARK    5  A    between atoms: _32  and  _33
REMARK    6  A    between atoms: _38  and  _43
REMARK    7  A    between atoms: _43  and  _46
REMARK    8  A    between atoms: _53  and  _55
REMARK                            x       y       z     vdW  Elec       q    Type
REMARK                         _______ _______ _______ _____ _____    ______ ____
ROOT
ATOM     10  C   UNL     1      10.350  26.552  20.033  0.00  0.00    +0.038 A 
ATOM     11  C   UNL     1       9.755  27.762  19.592  0.00  0.00    +0.047 A 
ATOM     12  C   UNL     1       8.816  28.488  20.434  0.00  0.00    +0.035 A 
ATOM     32  C   UNL     1       8.509  27.955  21.719  0.00  0.00    +0.024 A 
ATOM     33  C   UNL     1       9.104  26.726  22.182  0.00  0.00    +0.007 A 
ATOM     34  C   UNL     1      10.028  26.004  21.356  0.00  0.00    -0.029 A 
ATOM     35  C   UNL     1      10.631  24.688  21.901  0.00  0.00    +0.045 C 
ENDROOT
BRANCH  10   9
ATOM      4  C   UNL     1      11.443  23.083  16.901  0.00  0.00    +0.077 A 
ATOM      5  C   UNL     1      10.129  22.513  16.983  0.00  0.00    +0.048 A 
ATOM      6  C   UNL     1       9.203  23.139  17.848  0.00  0.00    +0.116 A 
ATOM      7  N   UNL     1       9.575  24.251  18.572  0.00  0.00    -0.223 NA
ATOM      8  C   UNL     1      10.851  24.774  18.471  0.00  0.00    +0.220 A 
ATOM      9  N   UNL     1      11.244  25.896  19.184  0.00  0.00    -0.283 N 
ATOM     36  H   UNL     1      12.197  26.246  19.087  0.00  0.00    +0.155 HD
ATOM     37  N   UNL     1      11.754  24.194  17.653  0.00  0.00    -0.214 NA
BRANCH   4   3
ATOM      1  C   UNL     1      14.713  22.747  14.780  0.00  0.00    +0.020 A 
ATOM      2  C   UNL     1      13.690  23.322  15.623  0.00  0.00    +0.013 A 
ATOM      3  C   UNL     1      12.531  22.537  16.029  0.00  0.00    +0.019 A 
ATOM     38  C   UNL     1      12.437  21.162  15.561  0.00  0.00    +0.120 A 
ATOM     39  N   UNL     1      13.436  20.636  14.749  0.00  0.00    -0.263 NA
ATOM     40  C   UNL     1      14.555  21.383  14.351  0.00  0.00    +0.111 A 
ENDBRANCH   4   3
ENDBRANCH  10   9
BRANCH  12  13
ATOM     13  N   UNL     1       8.174  29.717  20.037  0.00  0.00    -0.281 N 
ATOM     14  C   UNL     1       7.943  30.844  20.808  0.00  0.00    +0.248 C 
ATOM     30  O   UNL     1       8.065  30.887  22.023  0.00  0.00    -0.270 OA
ATOM     31  H   UNL     1       7.851  29.761  19.071  0.00  0.00    +0.155 HD
BRANCH  14  15
ATOM     15  C   UNL     1       7.500  32.102  20.133  0.00  0.00    +0.037 A 
ATOM     16  C   UNL     1       8.470  33.098  19.670  0.00  0.00    +0.013 A 
ATOM     17  C   UNL     1       8.015  34.311  19.037  0.00  0.00    +0.005 A 
ATOM     18  C   UNL     1       6.582  34.533  18.862  0.00  0.00    -0.033 A 
ATOM     28  C   UNL     1       5.642  33.526  19.326  0.00  0.00    +0.005 A 
ATOM     29  C   UNL     1       6.084  32.337  19.948  0.00  0.00    +0.013 A 
BRANCH  18  19
ATOM     19  C   UNL     1       6.005  35.807  18.217  0.00  0.00    +0.119 C 
BRANCH  19  20
ATOM     20  N   UNL     1       5.930  37.031  19.069  0.00  0.00    -0.302 NA
ATOM     21  C   UNL     1       5.015  36.832  20.281  0.00  0.00    +0.066 C 
ATOM     22  C   UNL     1       4.965  38.115  21.173  0.00  0.00    -0.064 C 
ATOM     23  N   UNL     1       4.497  39.302  20.330  0.00  0.00    +0.379 N 
ATOM     24  C   UNL     1       4.393  40.497  21.180  0.00  0.00    -0.096 C 
ATOM     25  H   UNL     1       3.475  39.066  19.952  0.00  0.00    -0.082 HD
ATOM     26  C   UNL     1       5.400  39.505  19.122  0.00  0.00    -0.064 C 
ATOM     27  C   UNL     1       5.465  38.215  18.257  0.00  0.00    +0.066 C 
ENDBRANCH  19  20
ENDBRANCH  18  19
ENDBRANCH  14  15
ENDBRANCH  12  13
TORSDOF 6
ENDMDL
MODEL 4
REMARK VINA RESULT:      -7.9     10.211     16.674
REMARK  Name = C:\Users\Docking\Desktop\test protocol\1iep_ligandH.pdb
REMARK  8 active torsions:
REMARK  status: ('A' for Active; 'I' for Inactive)
REMARK    1  A    between atoms: _5  and  _11
REMARK    2  A    between atoms: _19  and  _21
REMARK    3  A    between atoms: _22  and  _66
REMARK    4  A    between atoms: _27  and  _30
REMARK    5  A    between atoms: _32  and  _33
REMARK    6  A    between atoms: _38  and  _43
REMARK    7  A    between atoms: _43  and  _46
REMARK    8  A    between atoms: _53  and  _55
REMARK                            x       y       z     vdW  Elec       q    Type
REMARK                         _______ _______ _______ _____ _____    ______ ____
ROOT
ATOM     10  C   UNL     1       9.501  25.929  18.883  0.00  0.00    +0.038 A 
ATOM     11  C   UNL     1      10.798  25.720  18.350  0.00  0.00    +0.047 A 
ATOM     12  C   UNL     1      11.399  24.395  18.331  0.00  0.00    +0.035 A 
ATOM     32  C   UNL     1      10.648  23.305  18.860  0.00  0.00    +0.024 A 
ATOM     33  C   UNL     1       9.328  23.500  19.406  0.00  0.00    +0.007 A 
ATOM     34  C   UNL     1       8.732  24.805  19.430  0.00  0.00    -0.029 A 
ATOM     35  C   UNL     1       7.316  24.957  20.033  0.00  0.00    +0.045 C 
ENDROOT
BRANCH  10   9
ATOM      4  C   UNL     1       8.447  30.083  21.045  0.00  0.00    +0.077 A 
ATOM      5  C   UNL     1       8.969  29.629  22.302  0.00  0.00    +0.048 A 
ATOM      6  C   UNL     1       9.493  28.317  22.352  0.00  0.00    +0.116 A 
ATOM      7  N   UNL     1       9.490  27.528  21.222  0.00  0.00    -0.223 NA
ATOM      8  C   UNL     1       8.978  27.996  20.026  0.00  0.00    +0.220 A 
ATOM      9  N   UNL     1       8.973  27.222  18.876  0.00  0.00    -0.283 N 
ATOM     36  H   UNL     1       8.579  27.601  18.015  0.00  0.00    +0.155 HD
ATOM     37  N   UNL     1       8.471  29.244  19.953  0.00  0.00    -0.214 NA
BRANCH   4   3
ATOM      1  C   UNL     1       7.624  33.599  19.543  0.00  0.00    +0.020 A 
ATOM      2  C   UNL     1       8.218  32.292  19.702  0.00  0.00    +0.013 A 
ATOM      3  C   UNL     1       7.863  31.444  20.833  0.00  0.00    +0.019 A 
ATOM     38  C   UNL     1       6.894  31.953  21.792  0.00  0.00    +0.120 A 
ATOM     39  N   UNL     1       6.340  33.217  21.614  0.00  0.00    -0.263 NA
ATOM     40  C   UNL     1       6.676  34.042  20.530  0.00  0.00    +0.111 A 
ENDBRANCH   4   3
ENDBRANCH  10   9
BRANCH  12  13
ATOM     13  N   UNL     1      12.716  24.123  17.811  0.00  0.00    -0.281 N 
ATOM     14  C   UNL     1      13.055  23.346  16.715  0.00  0.00    +0.248 C 
ATOM     30  O   UNL     1      12.287  22.590  16.140  0.00  0.00    -0.270 OA
ATOM     31  H   UNL     1      13.493  24.556  18.311  0.00  0.00    +0.155 HD
BRANCH  14  15
ATOM     15  C   UNL     1      14.454  23.408  16.192  0.00  0.00    +0.037 A 
ATOM     16  C   UNL     1      14.735  23.283  14.759  0.00  0.00    +0.013 A 
ATOM     17  C   UNL     1      16.095  23.329  14.282  0.00  0.00    +0.005 A 
ATOM     18  C   UNL     1      17.184  23.502  15.241  0.00  0.00    -0.033 A 
ATOM     28  C   UNL     1      16.876  23.628  16.655  0.00  0.00    +0.005 A 
ATOM     29  C   UNL     1      15.545  23.582  17.126  0.00  0.00    +0.013 A 
BRANCH  18  19
ATOM     19  C   UNL     1      18.666  23.540  14.824  0.00  0.00    +0.119 C 
BRANCH  19  20
ATOM     20  N   UNL     1      19.423  24.796  15.106  0.00  0.00    -0.302 NA
ATOM     21  C   UNL     1      18.825  26.004  14.379  0.00  0.00    +0.066 C 
ATOM     22  C   UNL     1      19.616  27.313  14.703  0.00  0.00    -0.064 C 
ATOM     23  N   UNL     1      21.085  27.125  14.323  0.00  0.00    +0.379 N 
ATOM     24  C   UNL     1      21.820  28.374  14.573  0.00  0.00    -0.096 C 
ATOM     25  H   UNL     1      21.127  26.921  13.228  0.00  0.00    -0.082 HD
ATOM     26  C   UNL     1      21.688  25.925  15.039  0.00  0.00    -0.064 C 
ATOM     27  C   UNL     1      20.877  24.635  14.734  0.00  0.00    +0.066 C 
ENDBRANCH  19  20
ENDBRANCH  18  19
ENDBRANCH  14  15
ENDBRANCH  12  13
TORSDOF 6
ENDMDL
MODEL 5
REMARK VINA RESULT:      -7.9      4.703      8.750
REMARK  Name = C:\Users\Docking\Desktop\test protocol\1iep_ligandH.pdb
REMARK  8 active torsions:
REMARK  status: ('A' for Active; 'I' for Inactive)
REMARK    1  A    between atoms: _5  and  _11
REMARK    2  A    between atoms: _19  and  _21
REMARK    3  A    between atoms: _22  and  _66
REMARK    4  A    between atoms: _27  and  _30
REMARK    5  A    between atoms: _32  and  _33
REMARK    6  A    between atoms: _38  and  _43
REMARK    7  A    between atoms: _43  and  _46
REMARK    8  A    between atoms: _53  and  _55
REMARK                            x       y       z     vdW  Elec       q    Type
REMARK                         _______ _______ _______ _____ _____    ______ ____
ROOT
ATOM     10  C   UNL     1       4.572  35.507  22.414  0.00  0.00    +0.038 A 
ATOM     11  C   UNL     1       5.321  34.402  21.935  0.00  0.00    +0.047 A 
ATOM     12  C   UNL     1       5.375  33.152  22.675  0.00  0.00    +0.035 A 
ATOM     32  C   UNL     1       4.651  33.060  23.900  0.00  0.00    +0.024 A 
ATOM     33  C   UNL     1       3.886  34.173  24.403  0.00  0.00    +0.007 A 
ATOM     34  C   UNL     1       3.831  35.410  23.678  0.00  0.00    -0.029 A 
ATOM     35  C   UNL     1       2.999  36.573  24.267  0.00  0.00    +0.045 C 
ENDROOT
BRANCH  10   9
ATOM      4  C   UNL     1       5.426  37.967  18.382  0.00  0.00    +0.077 A 
ATOM      5  C   UNL     1       5.978  36.816  17.727  0.00  0.00    +0.048 A 
ATOM      6  C   UNL     1       6.030  35.612  18.465  0.00  0.00    +0.116 A 
ATOM      7  N   UNL     1       5.562  35.574  19.760  0.00  0.00    -0.223 NA
ATOM      8  C   UNL     1       5.038  36.702  20.363  0.00  0.00    +0.220 A 
ATOM      9  N   UNL     1       4.555  36.684  21.662  0.00  0.00    -0.283 N 
ATOM     36  H   UNL     1       4.183  37.540  22.074  0.00  0.00    +0.155 HD
ATOM     37  N   UNL     1       4.978  37.864  19.680  0.00  0.00    -0.214 NA
BRANCH   4   3
ATOM      1  C   UNL     1       5.489  40.865  15.755  0.00  0.00    +0.020 A 
ATOM      2  C   UNL     1       5.629  39.548  16.333  0.00  0.00    +0.013 A 
ATOM      3  C   UNL     1       5.300  39.310  17.733  0.00  0.00    +0.019 A 
ATOM     38  C   UNL     1       4.827  40.435  18.526  0.00  0.00    +0.120 A 
ATOM     39  N   UNL     1       4.703  41.692  17.943  0.00  0.00    -0.263 NA
ATOM     40  C   UNL     1       5.019  41.933  16.597  0.00  0.00    +0.111 A 
ENDBRANCH   4   3
ENDBRANCH  10   9
BRANCH  12  13
ATOM     13  N   UNL     1       6.125  31.999  22.242  0.00  0.00    -0.281 N 
ATOM     14  C   UNL     1       7.408  31.965  21.719  0.00  0.00    +0.248 C 
ATOM     30  O   UNL     1       8.027  32.949  21.344  0.00  0.00    -0.270 OA
ATOM     31  H   UNL     1       5.654  31.099  22.332  0.00  0.00    +0.155 HD
BRANCH  14  15
ATOM     15  C   UNL     1       8.096  30.645  21.580  0.00  0.00    +0.037 A 
ATOM     16  C   UNL     1       8.681  29.967  22.739  0.00  0.00    +0.013 A 
ATOM     17  C   UNL     1       9.354  28.703  22.574  0.00  0.00    +0.005 A 
ATOM     18  C   UNL     1       9.444  28.108  21.242  0.00  0.00    -0.033 A 
ATOM     28  C   UNL     1       8.849  28.800  20.111  0.00  0.00    +0.005 A 
ATOM     29  C   UNL     1       8.190  30.039  20.269  0.00  0.00    +0.013 A 
BRANCH  18  19
ATOM     19  C   UNL     1      10.161  26.773  20.970  0.00  0.00    +0.119 C 
BRANCH  19  20
ATOM     20  N   UNL     1       9.748  26.010  19.754  0.00  0.00    -0.302 NA
ATOM     21  C   UNL     1       8.478  25.189  19.996  0.00  0.00    +0.066 C 
ATOM     22  C   UNL     1       8.047  24.415  18.707  0.00  0.00    -0.064 C 
ATOM     23  N   UNL     1       9.195  23.515  18.249  0.00  0.00    +0.379 N 
ATOM     24  C   UNL     1       8.773  22.742  17.071  0.00  0.00    -0.096 C 
ATOM     25  H   UNL     1       9.406  22.791  19.070  0.00  0.00    -0.082 HD
ATOM     26  C   UNL     1      10.463  24.323  18.009  0.00  0.00    -0.064 C 
ATOM     27  C   UNL     1      10.866  25.111  19.286  0.00  0.00    +0.066 C 
ENDBRANCH  19  20
ENDBRANCH  18  19
ENDBRANCH  14  15
ENDBRANCH  12  13
TORSDOF 6
ENDMDL
