MODEL 1
REMARK VINA RESULT:      -8.5      0.000      0.000
REMARK  Name = C:\Users\Docking\Desktop\test protocol\1iep_ligandH.pdb
REMARK  8 active torsions:
REMARK  status: ('A' for Active; 'I' for Inactive)
REMARK    1  A    between atoms: _5  and  _11
REMARK    2  A    between atoms: _19  and  _21
REMARK    3  A    between atoms: _22  and  _66
REMARK    4  A    between atoms: _27  and  _30
REMARK    5  A    between atoms: _32  and  _33
REMARK    6  A    between atoms: _38  and  _43
REMARK    7  A    between atoms: _43  and  _46
REMARK    8  A    between atoms: _53  and  _55
REMARK                            x       y       z     vdW  Elec       q    Type
REMARK                         _______ _______ _______ _____ _____    ______ ____
ROOT
ATOM     10  C   UNL     1      21.291   8.226 -23.287  0.00  0.00    +0.038 A 
ATOM     11  C   UNL     1      21.294   6.889 -23.762  0.00  0.00    +0.047 A 
ATOM     12  C   UNL     1      22.465   6.326 -24.415  0.00  0.00    +0.035 A 
ATOM     32  C   UNL     1      23.617   7.152 -24.567  0.00  0.00    +0.024 A 
ATOM     33  C   UNL     1      23.631   8.513 -24.092  0.00  0.00    +0.007 A 
ATOM     34  C   UNL     1      22.478   9.075 -23.448  0.00  0.00    -0.029 A 
ATOM     35  C   UNL     1      22.546  10.542 -22.964  0.00  0.00    +0.045 C 
ENDROOT
BRANCH  10   9
ATOM      4  C   UNL     1      16.919  10.201 -23.433  0.00  0.00    +0.077 A 
ATOM      5  C   UNL     1      16.942  10.290 -24.864  0.00  0.00    +0.048 A 
ATOM      6  C   UNL     1      18.100   9.823 -25.525  0.00  0.00    +0.116 A 
ATOM      7  N   UNL     1      19.151   9.307 -24.798  0.00  0.00    -0.223 NA
ATOM      8  C   UNL     1      19.097   9.237 -23.418  0.00  0.00    +0.220 A 
ATOM      9  N   UNL     1      20.139   8.715 -22.667  0.00  0.00    -0.283 N 
ATOM     36  H   UNL     1      20.064   8.688 -21.650  0.00  0.00    +0.155 HD
ATOM     37  N   UNL     1      18.003   9.678 -22.763  0.00  0.00    -0.214 NA
BRANCH   4   3
ATOM      1  C   UNL     1      13.848  10.215 -21.010  0.00  0.00    +0.020 A 
ATOM      2  C   UNL     1      14.952   9.730 -21.805  0.00  0.00    +0.013 A 
ATOM      3  C   UNL     1      15.764  10.650 -22.592  0.00  0.00    +0.019 A 
ATOM     38  C   UNL     1      15.430  12.066 -22.551  0.00  0.00    +0.120 A 
ATOM     39  N   UNL     1      14.360  12.504 -21.777  0.00  0.00    -0.263 NA
ATOM     40  C   UNL     1      13.571  11.628 -21.017  0.00  0.00    +0.111 A 
ENDBRANCH   4   3
ENDBRANCH  10   9
BRANCH  12  13
ATOM     13  N   UNL     1      22.525   4.978 -24.925  0.00  0.00    -0.281 N 
ATOM     14  C   UNL     1      21.468   4.149 -25.265  0.00  0.00    +0.248 C 
ATOM     30  O   UNL     1      20.300   4.366 -24.980  0.00  0.00    -0.270 OA
ATOM     31  H   UNL     1      23.459   4.588 -25.050  0.00  0.00    +0.155 HD
BRANCH  14  15
ATOM     15  C   UNL     1      21.753   2.890 -26.018  0.00  0.00    +0.037 A 
ATOM     16  C   UNL     1      20.674   1.978 -26.407  0.00  0.00    +0.013 A 
ATOM     17  C   UNL     1      20.978   0.761 -27.119  0.00  0.00    +0.005 A 
ATOM     18  C   UNL     1      22.367   0.451 -27.447  0.00  0.00    -0.033 A 
ATOM     28  C   UNL     1      23.417   1.376 -27.053  0.00  0.00    +0.005 A 
ATOM     29  C   UNL     1      23.123   2.569 -26.355  0.00  0.00    +0.013 A 
BRANCH  18  19
ATOM     19  C   UNL     1      22.785  -0.834 -28.185  0.00  0.00    +0.119 C 
BRANCH  19  20
ATOM     20  N   UNL     1      23.258  -0.691 -29.594  0.00  0.00    -0.302 NA
ATOM     21  C   UNL     1      22.320   0.186 -30.429  0.00  0.00    +0.066 C 
ATOM     22  C   UNL     1      22.842   0.344 -31.894  0.00  0.00    -0.064 C 
ATOM     23  N   UNL     1      22.998  -1.038 -32.529  0.00  0.00    +0.379 N 
ATOM     24  C   UNL     1      23.433  -0.891 -33.925  0.00  0.00    -0.096 C 
ATOM     25  H   UNL     1      21.994  -1.522 -32.537  0.00  0.00    -0.082 HD
ATOM     26  C   UNL     1      23.927  -1.918 -31.704  0.00  0.00    -0.064 C 
ATOM     27  C   UNL     1      23.415  -2.044 -30.242  0.00  0.00    +0.066 C 
ENDBRANCH  19  20
ENDBRANCH  18  19
ENDBRANCH  14  15
ENDBRANCH  12  13
TORSDOF 6
ENDMDL
MODEL 2
REMARK VINA RESULT:      -8.2     21.990     25.343
REMARK  Name = C:\Users\Docking\Desktop\test protocol\1iep_ligandH.pdb
REMARK  8 active torsions:
REMARK  status: ('A' for Active; 'I' for Inactive)
REMARK    1  A    between atoms: _5  and  _11
REMARK    2  A    between atoms: _19  and  _21
REMARK    3  A    between atoms: _22  and  _66
REMARK    4  A    between atoms: _27  and  _30
REMARK    5  A    between atoms: _32  and  _33
REMARK    6  A    between atoms: _38  and  _43
REMARK    7  A    between atoms: _43  and  _46
REMARK    8  A    between atoms: _53  and  _55
REMARK                            x       y       z     vdW  Elec       q    Type
REMARK                         _______ _______ _______ _____ _____    ______ ____
ROOT
ATOM     10  C   UNL     1       4.724   4.152  -7.083  0.00  0.00    +0.038 A 
ATOM     11  C   UNL     1       4.220   3.565  -8.272  0.00  0.00    +0.047 A 
ATOM     12  C   UNL     1       3.772   4.386  -9.385  0.00  0.00    +0.035 A 
ATOM     32  C   UNL     1       3.853   5.803  -9.255  0.00  0.00    +0.024 A 
ATOM     33  C   UNL     1       4.361   6.417  -8.053  0.00  0.00    +0.007 A 
ATOM     34  C   UNL     1       4.803   5.612  -6.950  0.00  0.00    -0.029 A 
ATOM     35  C   UNL     1       5.332   6.323  -5.684  0.00  0.00    +0.045 C 
ENDROOT
BRANCH  10   9
ATOM      4  C   UNL     1       3.948   1.798  -2.973  0.00  0.00    +0.077 A 
ATOM      5  C   UNL     1       2.607   2.299  -2.870  0.00  0.00    +0.048 A 
ATOM      6  C   UNL     1       2.158   3.165  -3.892  0.00  0.00    +0.116 A 
ATOM      7  N   UNL     1       2.996   3.498  -4.934  0.00  0.00    -0.223 NA
ATOM      8  C   UNL     1       4.284   2.999  -5.002  0.00  0.00    +0.220 A 
ATOM      9  N   UNL     1       5.141   3.315  -6.045  0.00  0.00    -0.283 N 
ATOM     36  H   UNL     1       6.086   2.932  -6.055  0.00  0.00    +0.155 HD
ATOM     37  N   UNL     1       4.737   2.171  -4.038  0.00  0.00    -0.214 NA
BRANCH   4   3
ATOM      1  C   UNL     1       4.643  -1.295  -0.681  0.00  0.00    +0.020 A 
ATOM      2  C   UNL     1       4.007  -0.438  -1.655  0.00  0.00    +0.013 A 
ATOM      3  C   UNL     1       4.565   0.870  -1.973  0.00  0.00    +0.019 A 
ATOM     38  C   UNL     1       5.779   1.283  -1.284  0.00  0.00    +0.120 A 
ATOM     39  N   UNL     1       6.368   0.437  -0.350  0.00  0.00    -0.263 NA
ATOM     40  C   UNL     1       5.839  -0.823  -0.034  0.00  0.00    +0.111 A 
ENDBRANCH   4   3
ENDBRANCH  10   9
BRANCH  12  13
ATOM     13  N   UNL     1       3.244   3.847 -10.614  0.00  0.00    -0.281 N 
ATOM     14  C   UNL     1       1.916   3.653 -10.958  0.00  0.00    +0.248 C 
ATOM     30  O   UNL     1       0.983   3.717 -10.172  0.00  0.00    -0.270 OA
ATOM     31  H   UNL     1       3.933   3.575 -11.315  0.00  0.00    +0.155 HD
BRANCH  14  15
ATOM     15  C   UNL     1       1.578   3.328 -12.377  0.00  0.00    +0.037 A 
ATOM     16  C   UNL     1       2.626   3.129 -13.381  0.00  0.00    +0.013 A 
ATOM     17  C   UNL     1       2.271   2.833 -14.747  0.00  0.00    +0.005 A 
ATOM     18  C   UNL     1       0.861   2.732 -15.115  0.00  0.00    -0.033 A 
ATOM     28  C   UNL     1      -0.158   2.929 -14.097  0.00  0.00    +0.005 A 
ATOM     29  C   UNL     1       0.186   3.220 -12.758  0.00  0.00    +0.013 A 
BRANCH  18  19
ATOM     19  C   UNL     1       0.391   2.441 -16.553  0.00  0.00    +0.119 C 
BRANCH  19  20
ATOM     20  N   UNL     1      -0.000   3.610 -17.395  0.00  0.00    -0.302 NA
ATOM     21  C   UNL     1       0.034   3.279 -18.889  0.00  0.00    +0.066 C 
ATOM     22  C   UNL     1      -0.400   4.507 -19.754  0.00  0.00    -0.064 C 
ATOM     23  N   UNL     1       0.512   5.695 -19.442  0.00  0.00    +0.379 N 
ATOM     24  C   UNL     1       0.144   6.834 -20.296  0.00  0.00    -0.096 C 
ATOM     25  H   UNL     1       1.555   5.399 -19.703  0.00  0.00    -0.082 HD
ATOM     26  C   UNL     1       0.486   6.029 -17.957  0.00  0.00    -0.064 C 
ATOM     27  C   UNL     1       0.890   4.794 -17.105  0.00  0.00    +0.066 C 
ENDBRANCH  19  20
ENDBRANCH  18  19
ENDBRANCH  14  15
ENDBRANCH  12  13
TORSDOF 6
ENDMDL
MODEL 3
REMARK VINA RESULT:      -8.1     15.349     21.257
REMARK  Name = C:\Users\Docking\Desktop\test protocol\1iep_ligandH.pdb
REMARK  8 active torsions:
REMARK  status: ('A' for Active; 'I' for Inactive)
REMARK    1  A    between atoms: _5  and  _11
REMARK    2  A    between atoms: _19  and  _21
REMARK    3  A    between atoms: _22  and  _66
REMARK    4  A    between atoms: _27  and  _30
REMARK    5  A    between atoms: _32  and  _33
REMARK    6  A    between atoms: _38  and  _43
REMARK    7  A    between atoms: _43  and  _46
REMARK    8  A    between atoms: _53  and  _55
REMARK                            x       y       z     vdW  Elec       q    Type
REMARK                         _______ _______ _______ _____ _____    ______ ____
ROOT
ATOM     10  C   UNL     1      17.625   9.402 -10.302  0.00  0.00    +0.038 A 
ATOM     11  C   UNL     1      16.345   8.960  -9.880  0.00  0.00    +0.047 A 
ATOM     12  C   UNL     1      15.323   9.905  -9.458  0.00  0.00    +0.035 A 
ATOM     32  C   UNL     1      15.638  11.295  -9.481  0.00  0.00    +0.024 A 
ATOM     33  C   UNL     1      16.934  11.762  -9.906  0.00  0.00    +0.007 A 
ATOM     34  C   UNL     1      17.947  10.834 -10.321  0.00  0.00    -0.029 A 
ATOM     35  C   UNL     1      19.321  11.391 -10.762  0.00  0.00    +0.045 C 
ENDROOT
BRANCH  10   9
ATOM      4  C   UNL     1      20.765   5.902  -9.339  0.00  0.00    +0.077 A 
ATOM      5  C   UNL     1      20.526   5.995  -7.928  0.00  0.00    +0.048 A 
ATOM      6  C   UNL     1      19.593   6.962  -7.490  0.00  0.00    +0.116 A 
ATOM      7  N   UNL     1      18.952   7.769  -8.405  0.00  0.00    -0.223 NA
ATOM      8  C   UNL     1      19.206   7.655  -9.759  0.00  0.00    +0.220 A 
ATOM      9  N   UNL     1      18.568   8.451 -10.697  0.00  0.00    -0.283 N 
ATOM     36  H   UNL     1      18.789   8.340 -11.686  0.00  0.00    +0.155 HD
ATOM     37  N   UNL     1      20.094   6.740 -10.202  0.00  0.00    -0.214 NA
BRANCH   4   3
ATOM      1  C   UNL     1      22.775   3.784 -11.942  0.00  0.00    +0.020 A 
ATOM      2  C   UNL     1      21.837   4.738 -11.397  0.00  0.00    +0.013 A 
ATOM      3  C   UNL     1      21.720   4.928  -9.957  0.00  0.00    +0.019 A 
ATOM     38  C   UNL     1      22.574   4.132  -9.088  0.00  0.00    +0.120 A 
ATOM     39  N   UNL     1      23.468   3.221  -9.642  0.00  0.00    -0.263 NA
ATOM     40  C   UNL     1      23.588   3.028 -11.026  0.00  0.00    +0.111 A 
ENDBRANCH   4   3
ENDBRANCH  10   9
BRANCH  12  13
ATOM     13  N   UNL     1      14.009   9.514  -9.011  0.00  0.00    -0.281 N 
ATOM     14  C   UNL     1      13.423   9.752  -7.779  0.00  0.00    +0.248 C 
ATOM     30  O   UNL     1      14.024  10.154  -6.794  0.00  0.00    -0.270 OA
ATOM     31  H   UNL     1      13.442   9.000  -9.685  0.00  0.00    +0.155 HD
BRANCH  14  15
ATOM     15  C   UNL     1      11.960   9.492  -7.613  0.00  0.00    +0.037 A 
ATOM     16  C   UNL     1      11.225  10.002  -6.453  0.00  0.00    +0.013 A 
ATOM     17  C   UNL     1       9.818   9.722  -6.308  0.00  0.00    +0.005 A 
ATOM     18  C   UNL     1       9.137   8.930  -7.329  0.00  0.00    -0.033 A 
ATOM     28  C   UNL     1       9.890   8.441  -8.473  0.00  0.00    +0.005 A 
ATOM     29  C   UNL     1      11.269   8.712  -8.617  0.00  0.00    +0.013 A 
BRANCH  18  19
ATOM     19  C   UNL     1       7.643   8.565  -7.247  0.00  0.00    +0.119 C 
BRANCH  19  20
ATOM     20  N   UNL     1       7.296   7.114  -7.188  0.00  0.00    -0.302 NA
ATOM     21  C   UNL     1       5.781   6.885  -7.180  0.00  0.00    +0.066 C 
ATOM     22  C   UNL     1       5.436   5.361  -7.141  0.00  0.00    -0.064 C 
ATOM     23  N   UNL     1       6.085   4.725  -5.911  0.00  0.00    +0.379 N 
ATOM     24  C   UNL     1       5.715   3.304  -5.840  0.00  0.00    -0.096 C 
ATOM     25  H   UNL     1       5.667   5.230  -5.009  0.00  0.00    -0.082 HD
ATOM     26  C   UNL     1       7.591   4.950  -5.909  0.00  0.00    -0.064 C 
ATOM     27  C   UNL     1       7.923   6.467  -5.978  0.00  0.00    +0.066 C 
ENDBRANCH  19  20
ENDBRANCH  18  19
ENDBRANCH  14  15
ENDBRANCH  12  13
TORSDOF 6
ENDMDL
MODEL 4
REMARK VINA RESULT:      -8.1      2.826     12.700
REMARK  Name = C:\Users\Docking\Desktop\test protocol\1iep_ligandH.pdb
REMARK  8 active torsions:
REMARK  status: ('A' for Active; 'I' for Inactive)
REMARK    1  A    between atoms: _5  and  _11
REMARK    2  A    between atoms: _19  and  _21
REMARK    3  A    between atoms: _22  and  _66
REMARK    4  A    between atoms: _27  and  _30
REMARK    5  A    between atoms: _32  and  _33
REMARK    6  A    between atoms: _38  and  _43
REMARK    7  A    between atoms: _43  and  _46
REMARK    8  A    between atoms: _53  and  _55
REMARK                            x       y       z     vdW  Elec       q    Type
REMARK                         _______ _______ _______ _____ _____    ______ ____
ROOT
ATOM     10  C   UNL     1      22.453   7.662 -23.984  0.00  0.00    +0.038 A 
ATOM     11  C   UNL     1      21.227   8.250 -23.579  0.00  0.00    +0.047 A 
ATOM     12  C   UNL     1      21.087   9.694 -23.465  0.00  0.00    +0.035 A 
ATOM     32  C   UNL     1      22.215  10.509 -23.774  0.00  0.00    +0.024 A 
ATOM     33  C   UNL     1      23.468   9.927 -24.187  0.00  0.00    +0.007 A 
ATOM     34  C   UNL     1      23.613   8.504 -24.298  0.00  0.00    -0.029 A 
ATOM     35  C   UNL     1      24.982   7.935 -24.738  0.00  0.00    +0.045 C 
ENDROOT
BRANCH  10   9
ATOM      4  C   UNL     1      21.766   3.530 -26.327  0.00  0.00    +0.077 A 
ATOM      5  C   UNL     1      21.175   4.197 -27.451  0.00  0.00    +0.048 A 
ATOM      6  C   UNL     1      21.060   5.604 -27.384  0.00  0.00    +0.116 A 
ATOM      7  N   UNL     1      21.506   6.282 -26.270  0.00  0.00    -0.223 NA
ATOM      8  C   UNL     1      22.069   5.608 -25.202  0.00  0.00    +0.220 A 
ATOM      9  N   UNL     1      22.531   6.270 -24.076  0.00  0.00    -0.283 N 
ATOM     36  H   UNL     1      22.933   5.736 -23.306  0.00  0.00    +0.155 HD
ATOM     37  N   UNL     1      22.189   4.264 -25.241  0.00  0.00    -0.214 NA
BRANCH   4   3
ATOM      1  C   UNL     1      22.977  -0.025 -25.233  0.00  0.00    +0.020 A 
ATOM      2  C   UNL     1      22.826   1.411 -25.265  0.00  0.00    +0.013 A 
ATOM      3  C   UNL     1      21.959   2.047 -26.249  0.00  0.00    +0.019 A 
ATOM     38  C   UNL     1      21.253   1.194 -27.194  0.00  0.00    +0.120 A 
ATOM     39  N   UNL     1      21.420  -0.186 -27.140  0.00  0.00    -0.263 NA
ATOM     40  C   UNL     1      22.253  -0.809 -26.198  0.00  0.00    +0.111 A 
ENDBRANCH   4   3
ENDBRANCH  10   9
BRANCH  12  13
ATOM     13  N   UNL     1      19.871  10.348 -23.051  0.00  0.00    -0.281 N 
ATOM     14  C   UNL     1      18.925  10.972 -23.849  0.00  0.00    +0.248 C 
ATOM     30  O   UNL     1      19.090  11.250 -25.027  0.00  0.00    -0.270 OA
ATOM     31  H   UNL     1      19.684  10.351 -22.048  0.00  0.00    +0.155 HD
BRANCH  14  15
ATOM     15  C   UNL     1      17.612  11.355 -23.246  0.00  0.00    +0.037 A 
ATOM     16  C   UNL     1      16.529  10.379 -23.100  0.00  0.00    +0.013 A 
ATOM     17  C   UNL     1      15.266  10.780 -22.532  0.00  0.00    +0.005 A 
ATOM     18  C   UNL     1      15.081  12.164 -22.103  0.00  0.00    -0.033 A 
ATOM     28  C   UNL     1      16.174  13.110 -22.255  0.00  0.00    +0.005 A 
ATOM     29  C   UNL     1      17.413  12.722 -22.813  0.00  0.00    +0.013 A 
BRANCH  18  19
ATOM     19  C   UNL     1      13.761  12.685 -21.505  0.00  0.00    +0.119 C 
BRANCH  19  20
ATOM     20  N   UNL     1      13.073  13.795 -22.229  0.00  0.00    -0.302 NA
ATOM     21  C   UNL     1      11.788  14.234 -21.521  0.00  0.00    +0.066 C 
ATOM     22  C   UNL     1      11.094  15.412 -22.279  0.00  0.00    -0.064 C 
ATOM     23  N   UNL     1      10.800  14.985 -23.719  0.00  0.00    +0.379 N 
ATOM     24  C   UNL     1      10.095  16.069 -24.418  0.00  0.00    -0.096 C 
ATOM     25  H   UNL     1      10.115  14.107 -23.678  0.00  0.00    -0.082 HD
ATOM     26  C   UNL     1      12.072  14.545 -24.429  0.00  0.00    -0.064 C 
ATOM     27  C   UNL     1      12.770  13.394 -23.652  0.00  0.00    +0.066 C 
ENDBRANCH  19  20
ENDBRANCH  18  19
ENDBRANCH  14  15
ENDBRANCH  12  13
TORSDOF 6
ENDMDL
MODEL 5
REMARK VINA RESULT:      -8.1     14.457     18.798
REMARK  Name = C:\Users\Docking\Desktop\test protocol\1iep_ligandH.pdb
REMARK  8 active torsions:
REMARK  status: ('A' for Active; 'I' for Inactive)
REMARK    1  A    between atoms: _5  and  _11
REMARK    2  A    between atoms: _19  and  _21
REMARK    3  A    between atoms: _22  and  _66
REMARK    4  A    between atoms: _27  and  _30
REMARK    5  A    between atoms: _32  and  _33
REMARK    6  A    between atoms: _38  and  _43
REMARK    7  A    between atoms: _43  and  _46
REMARK    8  A    between atoms: _53  and  _55
REMARK                            x       y       z     vdW  Elec       q    Type
REMARK                         _______ _______ _______ _____ _____    ______ ____
ROOT
ATOM     10  C   UNL     1      25.471  -8.683 -26.773  0.00  0.00    +0.038 A 
ATOM     11  C   UNL     1      26.363  -8.206 -25.779  0.00  0.00    +0.047 A 
ATOM     12  C   UNL     1      27.550  -7.445 -26.135  0.00  0.00    +0.035 A 
ATOM     32  C   UNL     1      27.797  -7.186 -27.515  0.00  0.00    +0.024 A 
ATOM     33  C   UNL     1      26.902  -7.664 -28.539  0.00  0.00    +0.007 A 
ATOM     34  C   UNL     1      25.730  -8.417 -28.193  0.00  0.00    -0.029 A 
ATOM     35  C   UNL     1      24.809  -8.910 -29.333  0.00  0.00    +0.045 C 
ENDROOT
BRANCH  10   9
ATOM      4  C   UNL     1      23.204 -12.813 -25.855  0.00  0.00    +0.077 A 
ATOM      5  C   UNL     1      24.349 -13.593 -26.227  0.00  0.00    +0.048 A 
ATOM      6  C   UNL     1      25.500 -12.893 -26.655  0.00  0.00    +0.116 A 
ATOM      7  N   UNL     1      25.494 -11.516 -26.704  0.00  0.00    -0.223 NA
ATOM      8  C   UNL     1      24.372 -10.794 -26.341  0.00  0.00    +0.220 A 
ATOM      9  N   UNL     1      24.346  -9.408 -26.375  0.00  0.00    -0.283 N 
ATOM     36  H   UNL     1      23.496  -8.913 -26.105  0.00  0.00    +0.155 HD
ATOM     37  N   UNL     1      23.260 -11.439 -25.929  0.00  0.00    -0.214 NA
BRANCH   4   3
ATOM      1  C   UNL     1      19.403 -13.409 -25.152  0.00  0.00    +0.020 A 
ATOM      2  C   UNL     1      20.618 -12.795 -25.635  0.00  0.00    +0.013 A 
ATOM      3  C   UNL     1      21.915 -13.407 -25.378  0.00  0.00    +0.019 A 
ATOM     38  C   UNL     1      21.949 -14.652 -24.626  0.00  0.00    +0.120 A 
ATOM     39  N   UNL     1      20.762 -15.220 -24.172  0.00  0.00    -0.263 NA
ATOM     40  C   UNL     1      19.508 -14.639 -24.412  0.00  0.00    +0.111 A 
ENDBRANCH   4   3
ENDBRANCH  10   9
BRANCH  12  13
ATOM     13  N   UNL     1      28.496  -6.943 -25.170  0.00  0.00    -0.281 N 
ATOM     14  C   UNL     1      29.651  -7.554 -24.711  0.00  0.00    +0.248 C 
ATOM     30  O   UNL     1      29.935  -8.727 -24.904  0.00  0.00    -0.270 OA
ATOM     31  H   UNL     1      28.289  -6.024 -24.778  0.00  0.00    +0.155 HD
BRANCH  14  15
ATOM     15  C   UNL     1      30.624  -6.751 -23.910  0.00  0.00    +0.037 A 
ATOM     16  C   UNL     1      31.699  -5.995 -24.556  0.00  0.00    +0.013 A 
ATOM     17  C   UNL     1      32.635  -5.242 -23.759  0.00  0.00    +0.005 A 
ATOM     18  C   UNL     1      32.497  -5.241 -22.304  0.00  0.00    -0.033 A 
ATOM     28  C   UNL     1      31.418  -5.996 -21.689  0.00  0.00    +0.005 A 
ATOM     29  C   UNL     1      30.500  -6.736 -22.468  0.00  0.00    +0.013 A 
BRANCH  18  19
ATOM     19  C   UNL     1      33.462  -4.483 -21.374  0.00  0.00    +0.119 C 
BRANCH  19  20
ATOM     20  N   UNL     1      33.378  -2.992 -21.369  0.00  0.00    -0.302 NA
ATOM     21  C   UNL     1      34.142  -2.377 -20.193  0.00  0.00    +0.066 C 
ATOM     22  C   UNL     1      34.062  -0.816 -20.216  0.00  0.00    -0.064 C 
ATOM     23  N   UNL     1      32.595  -0.383 -20.195  0.00  0.00    +0.379 N 
ATOM     24  C   UNL     1      32.518   1.085 -20.158  0.00  0.00    -0.096 C 
ATOM     25  H   UNL     1      32.142  -0.769 -19.252  0.00  0.00    -0.082 HD
ATOM     26  C   UNL     1      31.828  -0.992 -21.359  0.00  0.00    -0.064 C 
ATOM     27  C   UNL     1      31.938  -2.542 -21.344  0.00  0.00    +0.066 C 
ENDBRANCH  19  20
ENDBRANCH  18  19
ENDBRANCH  14  15
ENDBRANCH  12  13
TORSDOF 6
ENDMDL
