MODEL 1
REMARK VINA RESULT:      -9.1      0.000      0.000
REMARK  Name = C:\Users\Docking\Desktop\test protocol\1iep_ligandH.pdb
REMARK  8 active torsions:
REMARK  status: ('A' for Active; 'I' for Inactive)
REMARK    1  A    between atoms: _5  and  _11
REMARK    2  A    between atoms: _19  and  _21
REMARK    3  A    between atoms: _22  and  _66
REMARK    4  A    between atoms: _27  and  _30
REMARK    5  A    between atoms: _32  and  _33
REMARK    6  A    between atoms: _38  and  _43
REMARK    7  A    between atoms: _43  and  _46
REMARK    8  A    between atoms: _53  and  _55
REMARK                            x       y       z     vdW  Elec       q    Type
REMARK                         _______ _______ _______ _____ _____    ______ ____
ROOT
ATOM     10  C   UNL     1     -22.551  26.124  -6.189  0.00  0.00    +0.038 A 
ATOM     11  C   UNL     1     -22.908  26.273  -7.554  0.00  0.00    +0.047 A 
ATOM     12  C   UNL     1     -24.279  26.560  -7.946  0.00  0.00    +0.035 A 
ATOM     32  C   UNL     1     -25.261  26.693  -6.921  0.00  0.00    +0.024 A 
ATOM     33  C   UNL     1     -24.916  26.543  -5.529  0.00  0.00    +0.007 A 
ATOM     34  C   UNL     1     -23.565  26.257  -5.137  0.00  0.00    -0.029 A 
ATOM     35  C   UNL     1     -23.254  26.101  -3.630  0.00  0.00    +0.045 C 
ENDROOT
BRANCH  10   9
ATOM      4  C   UNL     1     -18.538  23.531  -6.647  0.00  0.00    +0.077 A 
ATOM      5  C   UNL     1     -19.153  22.634  -7.581  0.00  0.00    +0.048 A 
ATOM      6  C   UNL     1     -20.507  22.870  -7.912  0.00  0.00    +0.116 A 
ATOM      7  N   UNL     1     -21.183  23.928  -7.345  0.00  0.00    -0.223 NA
ATOM      8  C   UNL     1     -20.560  24.773  -6.446  0.00  0.00    +0.220 A 
ATOM      9  N   UNL     1     -21.220  25.848  -5.869  0.00  0.00    -0.283 N 
ATOM     36  H   UNL     1     -20.727  26.444  -5.205  0.00  0.00    +0.155 HD
ATOM     37  N   UNL     1     -19.269  24.568  -6.112  0.00  0.00    -0.214 NA
BRANCH   4   3
ATOM      1  C   UNL     1     -15.021  22.089  -5.723  0.00  0.00    +0.020 A 
ATOM      2  C   UNL     1     -16.396  22.147  -6.163  0.00  0.00    +0.013 A 
ATOM      3  C   UNL     1     -17.114  23.415  -6.200  0.00  0.00    +0.019 A 
ATOM     38  C   UNL     1     -16.405  24.616  -5.783  0.00  0.00    +0.120 A 
ATOM     39  N   UNL     1     -15.081  24.529  -5.363  0.00  0.00    -0.263 NA
ATOM     40  C   UNL     1     -14.381  23.314  -5.321  0.00  0.00    +0.111 A 
ENDBRANCH   4   3
ENDBRANCH  10   9
BRANCH  12  13
ATOM     13  N   UNL     1     -24.702  26.714  -9.315  0.00  0.00    -0.281 N 
ATOM     14  C   UNL     1     -25.321  25.776 -10.126  0.00  0.00    +0.248 C 
ATOM     30  O   UNL     1     -25.411  24.586  -9.861  0.00  0.00    -0.270 OA
ATOM     31  H   UNL     1     -24.525  27.625  -9.739  0.00  0.00    +0.155 HD
BRANCH  14  15
ATOM     15  C   UNL     1     -25.911  26.221 -11.425  0.00  0.00    +0.037 A 
ATOM     16  C   UNL     1     -25.367  27.371 -12.152  0.00  0.00    +0.013 A 
ATOM     17  C   UNL     1     -25.966  27.790 -13.395  0.00  0.00    +0.005 A 
ATOM     18  C   UNL     1     -27.116  27.056 -13.918  0.00  0.00    -0.033 A 
ATOM     28  C   UNL     1     -27.632  25.917 -13.179  0.00  0.00    +0.005 A 
ATOM     29  C   UNL     1     -27.048  25.504 -11.960  0.00  0.00    +0.013 A 
BRANCH  18  19
ATOM     19  C   UNL     1     -27.832  27.446 -15.225  0.00  0.00    +0.119 C 
BRANCH  19  20
ATOM     20  N   UNL     1     -27.298  26.869 -16.495  0.00  0.00    -0.302 NA
ATOM     21  C   UNL     1     -26.681  25.484 -16.282  0.00  0.00    +0.066 C 
ATOM     22  C   UNL     1     -26.147  24.886 -17.625  0.00  0.00    -0.064 C 
ATOM     23  N   UNL     1     -25.126  25.846 -18.237  0.00  0.00    +0.379 N 
ATOM     24  C   UNL     1     -24.580  25.260 -19.470  0.00  0.00    -0.096 C 
ATOM     25  H   UNL     1     -24.286  25.953 -17.512  0.00  0.00    -0.082 HD
ATOM     26  C   UNL     1     -25.731  27.226 -18.450  0.00  0.00    -0.064 C 
ATOM     27  C   UNL     1     -26.284  27.799 -17.115  0.00  0.00    +0.066 C 
ENDBRANCH  19  20
ENDBRANCH  18  19
ENDBRANCH  14  15
ENDBRANCH  12  13
TORSDOF 6
ENDMDL
MODEL 2
REMARK VINA RESULT:      -8.3      8.085     13.104
REMARK  Name = C:\Users\Docking\Desktop\test protocol\1iep_ligandH.pdb
REMARK  8 active torsions:
REMARK  status: ('A' for Active; 'I' for Inactive)
REMARK    1  A    between atoms: _5  and  _11
REMARK    2  A    between atoms: _19  and  _21
REMARK    3  A    between atoms: _22  and  _66
REMARK    4  A    between atoms: _27  and  _30
REMARK    5  A    between atoms: _32  and  _33
REMARK    6  A    between atoms: _38  and  _43
REMARK    7  A    between atoms: _43  and  _46
REMARK    8  A    between atoms: _53  and  _55
REMARK                            x       y       z     vdW  Elec       q    Type
REMARK                         _______ _______ _______ _____ _____    ______ ____
ROOT
ATOM     10  C   UNL     1     -20.114  18.859 -16.984  0.00  0.00    +0.038 A 
ATOM     11  C   UNL     1     -19.835  19.556 -15.781  0.00  0.00    +0.047 A 
ATOM     12  C   UNL     1     -20.818  20.444 -15.180  0.00  0.00    +0.035 A 
ATOM     32  C   UNL     1     -22.078  20.596 -15.830  0.00  0.00    +0.024 A 
ATOM     33  C   UNL     1     -22.378  19.895 -17.054  0.00  0.00    +0.007 A 
ATOM     34  C   UNL     1     -21.411  19.020 -17.653  0.00  0.00    -0.029 A 
ATOM     35  C   UNL     1     -21.784  18.300 -18.969  0.00  0.00    +0.045 C 
ENDROOT
BRANCH  10   9
ATOM      4  C   UNL     1     -16.596  17.910 -20.108  0.00  0.00    +0.077 A 
ATOM      5  C   UNL     1     -16.742  19.185 -20.750  0.00  0.00    +0.048 A 
ATOM      6  C   UNL     1     -17.740  20.052 -20.251  0.00  0.00    +0.116 A 
ATOM      7  N   UNL     1     -18.526  19.664 -19.188  0.00  0.00    -0.223 NA
ATOM      8  C   UNL     1     -18.359  18.427 -18.592  0.00  0.00    +0.220 A 
ATOM      9  N   UNL     1     -19.133  18.019 -17.517  0.00  0.00    -0.283 N 
ATOM     36  H   UNL     1     -18.985  17.096 -17.110  0.00  0.00    +0.155 HD
ATOM     37  N   UNL     1     -17.415  17.580 -19.052  0.00  0.00    -0.214 NA
BRANCH   4   3
ATOM      1  C   UNL     1     -13.254  16.185 -21.181  0.00  0.00    +0.020 A 
ATOM      2  C   UNL     1     -14.190  17.212 -20.788  0.00  0.00    +0.013 A 
ATOM      3  C   UNL     1     -15.585  16.886 -20.519  0.00  0.00    +0.019 A 
ATOM     38  C   UNL     1     -16.003  15.499 -20.657  0.00  0.00    +0.120 A 
ATOM     39  N   UNL     1     -15.079  14.531 -21.039  0.00  0.00    -0.263 NA
ATOM     40  C   UNL     1     -13.735  14.834 -21.302  0.00  0.00    +0.111 A 
ENDBRANCH   4   3
ENDBRANCH  10   9
BRANCH  12  13
ATOM     13  N   UNL     1     -20.588  21.184 -13.964  0.00  0.00    -0.281 N 
ATOM     14  C   UNL     1     -21.365  21.201 -12.818  0.00  0.00    +0.248 C 
ATOM     30  O   UNL     1     -22.496  20.744 -12.742  0.00  0.00    -0.270 OA
ATOM     31  H   UNL     1     -19.751  21.767 -13.947  0.00  0.00    +0.155 HD
BRANCH  14  15
ATOM     15  C   UNL     1     -20.812  21.829 -11.580  0.00  0.00    +0.037 A 
ATOM     16  C   UNL     1     -19.444  22.354 -11.540  0.00  0.00    +0.013 A 
ATOM     17  C   UNL     1     -18.929  22.940 -10.328  0.00  0.00    +0.005 A 
ATOM     18  C   UNL     1     -19.784  23.005  -9.144  0.00  0.00    -0.033 A 
ATOM     28  C   UNL     1     -21.138  22.481  -9.213  0.00  0.00    +0.005 A 
ATOM     29  C   UNL     1     -21.646  21.906 -10.399  0.00  0.00    +0.013 A 
BRANCH  18  19
ATOM     19  C   UNL     1     -19.310  23.593  -7.802  0.00  0.00    +0.119 C 
BRANCH  19  20
ATOM     20  N   UNL     1     -20.337  23.766  -6.731  0.00  0.00    -0.302 NA
ATOM     21  C   UNL     1     -21.021  25.133  -6.806  0.00  0.00    +0.066 C 
ATOM     22  C   UNL     1     -22.108  25.288  -5.693  0.00  0.00    -0.064 C 
ATOM     23  N   UNL     1     -21.462  25.080  -4.322  0.00  0.00    +0.379 N 
ATOM     24  C   UNL     1     -22.469  25.282  -3.269  0.00  0.00    -0.096 C 
ATOM     25  H   UNL     1     -20.678  25.863  -4.195  0.00  0.00    -0.082 HD
ATOM     26  C   UNL     1     -20.777  23.723  -4.239  0.00  0.00    -0.064 C 
ATOM     27  C   UNL     1     -19.720  23.568  -5.368  0.00  0.00    +0.066 C 
ENDBRANCH  19  20
ENDBRANCH  18  19
ENDBRANCH  14  15
ENDBRANCH  12  13
TORSDOF 6
ENDMDL
MODEL 3
REMARK VINA RESULT:      -8.1     21.160     24.847
REMARK  Name = C:\Users\Docking\Desktop\test protocol\1iep_ligandH.pdb
REMARK  8 active torsions:
REMARK  status: ('A' for Active; 'I' for Inactive)
REMARK    1  A    between atoms: _5  and  _11
REMARK    2  A    between atoms: _19  and  _21
REMARK    3  A    between atoms: _22  and  _66
REMARK    4  A    between atoms: _27  and  _30
REMARK    5  A    between atoms: _32  and  _33
REMARK    6  A    between atoms: _38  and  _43
REMARK    7  A    between atoms: _43  and  _46
REMARK    8  A    between atoms: _53  and  _55
REMARK                            x       y       z     vdW  Elec       q    Type
REMARK                         _______ _______ _______ _____ _____    ______ ____
ROOT
ATOM     10  C   UNL     1     -13.705   9.091 -17.488  0.00  0.00    +0.038 A 
ATOM     11  C   UNL     1     -14.004   7.728 -17.231  0.00  0.00    +0.047 A 
ATOM     12  C   UNL     1     -14.827   7.339 -16.097  0.00  0.00    +0.035 A 
ATOM     32  C   UNL     1     -15.333   8.365 -15.246  0.00  0.00    +0.024 A 
ATOM     33  C   UNL     1     -15.039   9.755 -15.491  0.00  0.00    +0.007 A 
ATOM     34  C   UNL     1     -14.225  10.144 -16.607  0.00  0.00    -0.029 A 
ATOM     35  C   UNL     1     -13.936  11.649 -16.818  0.00  0.00    +0.045 C 
ENDROOT
BRANCH  10   9
ATOM      4  C   UNL     1     -13.154  10.407 -22.070  0.00  0.00    +0.077 A 
ATOM      5  C   UNL     1     -14.571  10.440 -22.293  0.00  0.00    +0.048 A 
ATOM      6  C   UNL     1     -15.407  10.105 -21.204  0.00  0.00    +0.116 A 
ATOM      7  N   UNL     1     -14.856   9.764 -19.988  0.00  0.00    -0.223 NA
ATOM      8  C   UNL     1     -13.485   9.740 -19.808  0.00  0.00    +0.220 A 
ATOM      9  N   UNL     1     -12.910   9.408 -18.591  0.00  0.00    -0.283 N 
ATOM     36  H   UNL     1     -11.894   9.395 -18.500  0.00  0.00    +0.155 HD
ATOM     37  N   UNL     1     -12.665  10.055 -20.832  0.00  0.00    -0.214 NA
BRANCH   4   3
ATOM      1  C   UNL     1      -9.790  10.755 -24.035  0.00  0.00    +0.020 A 
ATOM      2  C   UNL     1     -10.727  10.412 -22.990  0.00  0.00    +0.013 A 
ATOM      3  C   UNL     1     -12.141  10.739 -23.122  0.00  0.00    +0.019 A 
ATOM     38  C   UNL     1     -12.578  11.417 -24.333  0.00  0.00    +0.120 A 
ATOM     39  N   UNL     1     -11.652  11.736 -25.322  0.00  0.00    -0.263 NA
ATOM     40  C   UNL     1     -10.289  11.428 -25.205  0.00  0.00    +0.111 A 
ENDBRANCH   4   3
ENDBRANCH  10   9
BRANCH  12  13
ATOM     13  N   UNL     1     -15.157   5.971 -15.782  0.00  0.00    -0.281 N 
ATOM     14  C   UNL     1     -16.324   5.287 -16.078  0.00  0.00    +0.248 C 
ATOM     30  O   UNL     1     -17.353   5.814 -16.475  0.00  0.00    -0.270 OA
ATOM     31  H   UNL     1     -14.443   5.444 -15.279  0.00  0.00    +0.155 HD
BRANCH  14  15
ATOM     15  C   UNL     1     -16.358   3.804 -15.894  0.00  0.00    +0.037 A 
ATOM     16  C   UNL     1     -16.742   3.206 -14.612  0.00  0.00    +0.013 A 
ATOM     17  C   UNL     1     -16.750   1.773 -14.456  0.00  0.00    +0.005 A 
ATOM     18  C   UNL     1     -16.373   0.927 -15.587  0.00  0.00    -0.033 A 
ATOM     28  C   UNL     1     -16.002   1.547 -16.848  0.00  0.00    +0.005 A 
ATOM     29  C   UNL     1     -15.992   2.951 -17.004  0.00  0.00    +0.013 A 
BRANCH  18  19
ATOM     19  C   UNL     1     -16.333  -0.610 -15.504  0.00  0.00    +0.119 C 
BRANCH  19  20
ATOM     20  N   UNL     1     -14.999  -1.249 -15.299  0.00  0.00    -0.302 NA
ATOM     21  C   UNL     1     -14.040  -0.341 -14.524  0.00  0.00    +0.066 C 
ATOM     22  C   UNL     1     -12.657  -1.034 -14.299  0.00  0.00    -0.064 C 
ATOM     23  N   UNL     1     -12.059  -1.424 -15.651  0.00  0.00    +0.379 N 
ATOM     24  C   UNL     1     -10.732  -2.023 -15.446  0.00  0.00    -0.096 C 
ATOM     25  H   UNL     1     -11.920  -0.489 -16.242  0.00  0.00    -0.082 HD
ATOM     26  C   UNL     1     -13.007  -2.325 -16.430  0.00  0.00    -0.064 C 
ATOM     27  C   UNL     1     -14.388  -1.639 -16.623  0.00  0.00    +0.066 C 
ENDBRANCH  19  20
ENDBRANCH  18  19
ENDBRANCH  14  15
ENDBRANCH  12  13
TORSDOF 6
ENDMDL
MODEL 4
REMARK VINA RESULT:      -7.9     11.381     14.750
REMARK  Name = C:\Users\Docking\Desktop\test protocol\1iep_ligandH.pdb
REMARK  8 active torsions:
REMARK  status: ('A' for Active; 'I' for Inactive)
REMARK    1  A    between atoms: _5  and  _11
REMARK    2  A    between atoms: _19  and  _21
REMARK    3  A    between atoms: _22  and  _66
REMARK    4  A    between atoms: _27  and  _30
REMARK    5  A    between atoms: _32  and  _33
REMARK    6  A    between atoms: _38  and  _43
REMARK    7  A    between atoms: _43  and  _46
REMARK    8  A    between atoms: _53  and  _55
REMARK                            x       y       z     vdW  Elec       q    Type
REMARK                         _______ _______ _______ _____ _____    ______ ____
ROOT
ATOM     10  C   UNL     1     -19.456  20.434 -17.023  0.00  0.00    +0.038 A 
ATOM     11  C   UNL     1     -19.018  19.137 -17.395  0.00  0.00    +0.047 A 
ATOM     12  C   UNL     1     -19.171  18.655 -18.759  0.00  0.00    +0.035 A 
ATOM     32  C   UNL     1     -19.772  19.520 -19.719  0.00  0.00    +0.024 A 
ATOM     33  C   UNL     1     -20.224  20.841 -19.357  0.00  0.00    +0.007 A 
ATOM     34  C   UNL     1     -20.078  21.321 -18.012  0.00  0.00    -0.029 A 
ATOM     35  C   UNL     1     -20.587  22.743 -17.679  0.00  0.00    +0.045 C 
ENDROOT
BRANCH  10   9
ATOM      4  C   UNL     1     -21.126  21.285 -12.604  0.00  0.00    +0.077 A 
ATOM      5  C   UNL     1     -22.459  20.901 -12.970  0.00  0.00    +0.048 A 
ATOM      6  C   UNL     1     -22.674  20.498 -14.307  0.00  0.00    +0.116 A 
ATOM      7  N   UNL     1     -21.627  20.483 -15.202  0.00  0.00    -0.223 NA
ATOM      8  C   UNL     1     -20.354  20.861 -14.817  0.00  0.00    +0.220 A 
ATOM      9  N   UNL     1     -19.284  20.846 -15.699  0.00  0.00    -0.283 N 
ATOM     36  H   UNL     1     -18.362  21.139 -15.378  0.00  0.00    +0.155 HD
ATOM     37  N   UNL     1     -20.123  21.251 -13.547  0.00  0.00    -0.214 NA
BRANCH   4   3
ATOM      1  C   UNL     1     -19.237  21.685  -9.202  0.00  0.00    +0.020 A 
ATOM      2  C   UNL     1     -19.567  21.221 -10.530  0.00  0.00    +0.013 A 
ATOM      3  C   UNL     1     -20.739  21.731 -11.228  0.00  0.00    +0.019 A 
ATOM     38  C   UNL     1     -21.564  22.720 -10.550  0.00  0.00    +0.120 A 
ATOM     39  N   UNL     1     -21.223  23.148  -9.271  0.00  0.00    -0.263 NA
ATOM     40  C   UNL     1     -20.098  22.662  -8.588  0.00  0.00    +0.111 A 
ENDBRANCH   4   3
ENDBRANCH  10   9
BRANCH  12  13
ATOM     13  N   UNL     1     -18.753  17.345 -19.194  0.00  0.00    -0.281 N 
ATOM     14  C   UNL     1     -17.516  16.968 -19.691  0.00  0.00    +0.248 C 
ATOM     30  O   UNL     1     -16.643  17.749 -20.039  0.00  0.00    -0.270 OA
ATOM     31  H   UNL     1     -19.454  16.607 -19.128  0.00  0.00    +0.155 HD
BRANCH  14  15
ATOM     15  C   UNL     1     -17.210  15.512 -19.837  0.00  0.00    +0.037 A 
ATOM     16  C   UNL     1     -18.265  14.500 -19.738  0.00  0.00    +0.013 A 
ATOM     17  C   UNL     1     -17.940  13.101 -19.865  0.00  0.00    +0.005 A 
ATOM     18  C   UNL     1     -16.552  12.707 -20.094  0.00  0.00    -0.033 A 
ATOM     28  C   UNL     1     -15.526  13.731 -20.193  0.00  0.00    +0.005 A 
ATOM     29  C   UNL     1     -15.841  15.103 -20.068  0.00  0.00    +0.013 A 
BRANCH  18  19
ATOM     19  C   UNL     1     -16.111  11.236 -20.221  0.00  0.00    +0.119 C 
BRANCH  19  20
ATOM     20  N   UNL     1     -15.519  10.593 -19.010  0.00  0.00    -0.302 NA
ATOM     21  C   UNL     1     -14.420   9.591 -19.371  0.00  0.00    +0.066 C 
ATOM     22  C   UNL     1     -13.796   8.944 -18.092  0.00  0.00    -0.064 C 
ATOM     23  N   UNL     1     -14.900   8.267 -17.276  0.00  0.00    +0.379 N 
ATOM     24  C   UNL     1     -14.308   7.609 -16.102  0.00  0.00    -0.096 C 
ATOM     25  H   UNL     1     -15.355   7.475 -17.915  0.00  0.00    -0.082 HD
ATOM     26  C   UNL     1     -15.998   9.257 -16.915  0.00  0.00    -0.064 C 
ATOM     27  C   UNL     1     -16.591   9.916 -18.192  0.00  0.00    +0.066 C 
ENDBRANCH  19  20
ENDBRANCH  18  19
ENDBRANCH  14  15
ENDBRANCH  12  13
TORSDOF 6
ENDMDL
MODEL 5
REMARK VINA RESULT:      -7.8     11.513     14.627
REMARK  Name = C:\Users\Docking\Desktop\test protocol\1iep_ligandH.pdb
REMARK  8 active torsions:
REMARK  status: ('A' for Active; 'I' for Inactive)
REMARK    1  A    between atoms: _5  and  _11
REMARK    2  A    between atoms: _19  and  _21
REMARK    3  A    between atoms: _22  and  _66
REMARK    4  A    between atoms: _27  and  _30
REMARK    5  A    between atoms: _32  and  _33
REMARK    6  A    between atoms: _38  and  _43
REMARK    7  A    between atoms: _43  and  _46
REMARK    8  A    between atoms: _53  and  _55
REMARK                            x       y       z     vdW  Elec       q    Type
REMARK                         _______ _______ _______ _____ _____    ______ ____
ROOT
ATOM     10  C   UNL     1     -19.333  20.052 -16.804  0.00  0.00    +0.038 A 
ATOM     11  C   UNL     1     -18.911  18.709 -16.971  0.00  0.00    +0.047 A 
ATOM     12  C   UNL     1     -18.996  18.049 -18.265  0.00  0.00    +0.035 A 
ATOM     32  C   UNL     1     -19.514  18.788 -19.368  0.00  0.00    +0.024 A 
ATOM     33  C   UNL     1     -19.949  20.154 -19.216  0.00  0.00    +0.007 A 
ATOM     34  C   UNL     1     -19.870  20.810 -17.942  0.00  0.00    -0.029 A 
ATOM     35  C   UNL     1     -20.357  22.274 -17.835  0.00  0.00    +0.045 C 
ENDROOT
BRANCH  10   9
ATOM      4  C   UNL     1     -21.208  21.397 -12.596  0.00  0.00    +0.077 A 
ATOM      5  C   UNL     1     -22.512  20.919 -12.956  0.00  0.00    +0.048 A 
ATOM      6  C   UNL     1     -22.659  20.340 -14.237  0.00  0.00    +0.116 A 
ATOM      7  N   UNL     1     -21.576  20.251 -15.085  0.00  0.00    -0.223 NA
ATOM      8  C   UNL     1     -20.333  20.723 -14.707  0.00  0.00    +0.220 A 
ATOM      9  N   UNL     1     -19.229  20.637 -15.540  0.00  0.00    -0.283 N 
ATOM     36  H   UNL     1     -18.331  21.004 -15.227  0.00  0.00    +0.155 HD
ATOM     37  N   UNL     1     -20.167  21.282 -13.490  0.00  0.00    -0.214 NA
BRANCH   4   3
ATOM      1  C   UNL     1     -21.351  23.676  -9.420  0.00  0.00    +0.020 A 
ATOM      2  C   UNL     1     -21.699  23.098 -10.698  0.00  0.00    +0.013 A 
ATOM      3  C   UNL     1     -20.893  22.031 -11.277  0.00  0.00    +0.019 A 
ATOM     38  C   UNL     1     -19.733  21.567 -10.531  0.00  0.00    +0.120 A 
ATOM     39  N   UNL     1     -19.421  22.143  -9.303  0.00  0.00    -0.263 NA
ATOM     40  C   UNL     1     -20.188  23.172  -8.737  0.00  0.00    +0.111 A 
ENDBRANCH   4   3
ENDBRANCH  10   9
BRANCH  12  13
ATOM     13  N   UNL     1     -18.589  16.684 -18.493  0.00  0.00    -0.281 N 
ATOM     14  C   UNL     1     -19.371  15.623 -18.920  0.00  0.00    +0.248 C 
ATOM     30  O   UNL     1     -20.592  15.638 -18.965  0.00  0.00    -0.270 OA
ATOM     31  H   UNL     1     -17.606  16.475 -18.319  0.00  0.00    +0.155 HD
BRANCH  14  15
ATOM     15  C   UNL     1     -18.700  14.356 -19.343  0.00  0.00    +0.037 A 
ATOM     16  C   UNL     1     -18.156  13.418 -18.358  0.00  0.00    +0.013 A 
ATOM     17  C   UNL     1     -17.498  12.212 -18.794  0.00  0.00    +0.005 A 
ATOM     18  C   UNL     1     -17.382  11.936 -20.223  0.00  0.00    -0.033 A 
ATOM     28  C   UNL     1     -17.935  12.881 -21.179  0.00  0.00    +0.005 A 
ATOM     29  C   UNL     1     -18.580  14.065 -20.756  0.00  0.00    +0.013 A 
BRANCH  18  19
ATOM     19  C   UNL     1     -16.678  10.684 -20.779  0.00  0.00    +0.119 C 
BRANCH  19  20
ATOM     20  N   UNL     1     -15.199  10.593 -20.594  0.00  0.00    -0.302 NA
ATOM     21  C   UNL     1     -14.826   9.871 -19.296  0.00  0.00    +0.066 C 
ATOM     22  C   UNL     1     -13.275   9.764 -19.130  0.00  0.00    -0.064 C 
ATOM     23  N   UNL     1     -12.664  11.166 -19.165  0.00  0.00    +0.379 N 
ATOM     24  C   UNL     1     -11.212  11.073 -18.950  0.00  0.00    -0.096 C 
ATOM     25  H   UNL     1     -13.095  11.744 -18.315  0.00  0.00    -0.082 HD
ATOM     26  C   UNL     1     -13.032  11.892 -20.451  0.00  0.00    -0.064 C 
ATOM     27  C   UNL     1     -14.575  11.966 -20.621  0.00  0.00    +0.066 C 
ENDBRANCH  19  20
ENDBRANCH  18  19
ENDBRANCH  14  15
ENDBRANCH  12  13
TORSDOF 6
ENDMDL
