MODEL 1
REMARK VINA RESULT:      -8.4      0.000      0.000
REMARK  Name = C:\Users\Docking\Desktop\test protocol\1iep_ligandH.pdb
REMARK  8 active torsions:
REMARK  status: ('A' for Active; 'I' for Inactive)
REMARK    1  A    between atoms: _5  and  _11
REMARK    2  A    between atoms: _19  and  _21
REMARK    3  A    between atoms: _22  and  _66
REMARK    4  A    between atoms: _27  and  _30
REMARK    5  A    between atoms: _32  and  _33
REMARK    6  A    between atoms: _38  and  _43
REMARK    7  A    between atoms: _43  and  _46
REMARK    8  A    between atoms: _53  and  _55
REMARK                            x       y       z     vdW  Elec       q    Type
REMARK                         _______ _______ _______ _____ _____    ______ ____
ROOT
ATOM     10  C   UNL     1     -19.775  18.483 -17.042  0.00  0.00    +0.038 A 
ATOM     11  C   UNL     1     -19.512  19.185 -15.838  0.00  0.00    +0.047 A 
ATOM     12  C   UNL     1     -20.476  20.126 -15.289  0.00  0.00    +0.035 A 
ATOM     32  C   UNL     1     -21.700  20.325 -15.992  0.00  0.00    +0.024 A 
ATOM     33  C   UNL     1     -21.984  19.620 -17.217  0.00  0.00    +0.007 A 
ATOM     34  C   UNL     1     -21.036  18.693 -17.765  0.00  0.00    -0.029 A 
ATOM     35  C   UNL     1     -21.390  17.971 -19.085  0.00  0.00    +0.045 C 
ENDROOT
BRANCH  10   9
ATOM      4  C   UNL     1     -16.290  17.267 -20.110  0.00  0.00    +0.077 A 
ATOM      5  C   UNL     1     -16.413  18.501 -20.831  0.00  0.00    +0.048 A 
ATOM      6  C   UNL     1     -17.390  19.419 -20.385  0.00  0.00    +0.116 A 
ATOM      7  N   UNL     1     -18.180  19.115 -19.297  0.00  0.00    -0.223 NA
ATOM      8  C   UNL     1     -18.036  17.915 -18.625  0.00  0.00    +0.220 A 
ATOM      9  N   UNL     1     -18.814  17.591 -17.524  0.00  0.00    -0.283 N 
ATOM     36  H   UNL     1     -18.683  16.693 -17.060  0.00  0.00    +0.155 HD
ATOM     37  N   UNL     1     -17.111  17.021 -19.033  0.00  0.00    -0.214 NA
BRANCH   4   3
ATOM      1  C   UNL     1     -12.981  15.404 -21.048  0.00  0.00    +0.020 A 
ATOM      2  C   UNL     1     -13.894  16.473 -20.716  0.00  0.00    +0.013 A 
ATOM      3  C   UNL     1     -15.302  16.198 -20.458  0.00  0.00    +0.019 A 
ATOM     38  C   UNL     1     -15.757  14.818 -20.545  0.00  0.00    +0.120 A 
ATOM     39  N   UNL     1     -14.855  13.809 -20.868  0.00  0.00    -0.263 NA
ATOM     40  C   UNL     1     -13.498  14.063 -21.119  0.00  0.00    +0.111 A 
ENDBRANCH   4   3
ENDBRANCH  10   9
BRANCH  12  13
ATOM     13  N   UNL     1     -20.261  20.873 -14.076  0.00  0.00    -0.281 N 
ATOM     14  C   UNL     1     -21.058  20.908 -12.944  0.00  0.00    +0.248 C 
ATOM     30  O   UNL     1     -22.196  20.465 -12.886  0.00  0.00    -0.270 OA
ATOM     31  H   UNL     1     -19.417  21.447 -14.047  0.00  0.00    +0.155 HD
BRANCH  14  15
ATOM     15  C   UNL     1     -20.521  21.540 -11.700  0.00  0.00    +0.037 A 
ATOM     16  C   UNL     1     -19.443  22.531 -11.756  0.00  0.00    +0.013 A 
ATOM     17  C   UNL     1     -18.931  23.112 -10.541  0.00  0.00    +0.005 A 
ATOM     18  C   UNL     1     -19.498  22.705  -9.258  0.00  0.00    -0.033 A 
ATOM     28  C   UNL     1     -20.571  21.724  -9.232  0.00  0.00    +0.005 A 
ATOM     29  C   UNL     1     -21.074  21.151 -10.421  0.00  0.00    +0.013 A 
BRANCH  18  19
ATOM     19  C   UNL     1     -19.000  23.257  -7.909  0.00  0.00    +0.119 C 
BRANCH  19  20
ATOM     20  N   UNL     1     -20.030  23.565  -6.873  0.00  0.00    -0.302 NA
ATOM     21  C   UNL     1     -20.725  24.904  -7.134  0.00  0.00    +0.066 C 
ATOM     22  C   UNL     1     -21.816  25.199  -6.054  0.00  0.00    -0.064 C 
ATOM     23  N   UNL     1     -21.172  25.185  -4.666  0.00  0.00    +0.379 N 
ATOM     24  C   UNL     1     -22.183  25.519  -3.653  0.00  0.00    -0.096 C 
ATOM     25  H   UNL     1     -20.395  25.984  -4.646  0.00  0.00    -0.082 HD
ATOM     26  C   UNL     1     -20.476  23.858  -4.399  0.00  0.00    -0.064 C 
ATOM     27  C   UNL     1     -19.415  23.560  -5.495  0.00  0.00    +0.066 C 
ENDBRANCH  19  20
ENDBRANCH  18  19
ENDBRANCH  14  15
ENDBRANCH  12  13
TORSDOF 6
ENDMDL
MODEL 2
REMARK VINA RESULT:      -8.4      3.722     13.020
REMARK  Name = C:\Users\Docking\Desktop\test protocol\1iep_ligandH.pdb
REMARK  8 active torsions:
REMARK  status: ('A' for Active; 'I' for Inactive)
REMARK    1  A    between atoms: _5  and  _11
REMARK    2  A    between atoms: _19  and  _21
REMARK    3  A    between atoms: _22  and  _66
REMARK    4  A    between atoms: _27  and  _30
REMARK    5  A    between atoms: _32  and  _33
REMARK    6  A    between atoms: _38  and  _43
REMARK    7  A    between atoms: _43  and  _46
REMARK    8  A    between atoms: _53  and  _55
REMARK                            x       y       z     vdW  Elec       q    Type
REMARK                         _______ _______ _______ _____ _____    ______ ____
ROOT
ATOM     10  C   UNL     1     -18.986  19.913 -17.262  0.00  0.00    +0.038 A 
ATOM     11  C   UNL     1     -18.530  18.603 -17.555  0.00  0.00    +0.047 A 
ATOM     12  C   UNL     1     -18.599  18.066 -18.905  0.00  0.00    +0.035 A 
ATOM     32  C   UNL     1     -19.138  18.893 -19.934  0.00  0.00    +0.024 A 
ATOM     33  C   UNL     1     -19.608  20.227 -19.653  0.00  0.00    +0.007 A 
ATOM     34  C   UNL     1     -19.544  20.761 -18.323  0.00  0.00    -0.029 A 
ATOM     35  C   UNL     1     -20.068  22.195 -18.079  0.00  0.00    +0.045 C 
ENDROOT
BRANCH  10   9
ATOM      4  C   UNL     1     -20.919  20.915 -12.984  0.00  0.00    +0.077 A 
ATOM      5  C   UNL     1     -22.225  20.503 -13.412  0.00  0.00    +0.048 A 
ATOM      6  C   UNL     1     -22.358  20.047 -14.742  0.00  0.00    +0.116 A 
ATOM      7  N   UNL     1     -21.260  20.009 -15.574  0.00  0.00    -0.223 NA
ATOM      8  C   UNL     1     -20.015  20.415 -15.131  0.00  0.00    +0.220 A 
ATOM      9  N   UNL     1     -18.896  20.378 -15.948  0.00  0.00    -0.283 N 
ATOM     36  H   UNL     1     -17.996  20.693 -15.585  0.00  0.00    +0.155 HD
ATOM     37  N   UNL     1     -19.862  20.856 -13.865  0.00  0.00    -0.214 NA
BRANCH   4   3
ATOM      1  C   UNL     1     -19.259  21.437  -9.481  0.00  0.00    +0.020 A 
ATOM      2  C   UNL     1     -19.507  20.917 -10.805  0.00  0.00    +0.013 A 
ATOM      3  C   UNL     1     -20.617  21.418 -11.607  0.00  0.00    +0.019 A 
ATOM     38  C   UNL     1     -21.462  22.455 -11.034  0.00  0.00    +0.120 A 
ATOM     39  N   UNL     1     -21.199  22.936  -9.755  0.00  0.00    -0.263 NA
ATOM     40  C   UNL     1     -20.135  22.460  -8.974  0.00  0.00    +0.111 A 
ENDBRANCH   4   3
ENDBRANCH  10   9
BRANCH  12  13
ATOM     13  N   UNL     1     -18.158  16.740 -19.262  0.00  0.00    -0.281 N 
ATOM     14  C   UNL     1     -16.957  16.370 -19.844  0.00  0.00    +0.248 C 
ATOM     30  O   UNL     1     -16.162  17.151 -20.345  0.00  0.00    -0.270 OA
ATOM     31  H   UNL     1     -18.811  15.983 -19.060  0.00  0.00    +0.155 HD
BRANCH  14  15
ATOM     15  C   UNL     1     -16.593  14.921 -19.889  0.00  0.00    +0.037 A 
ATOM     16  C   UNL     1     -17.566  13.882 -19.545  0.00  0.00    +0.013 A 
ATOM     17  C   UNL     1     -17.184  12.492 -19.580  0.00  0.00    +0.005 A 
ATOM     18  C   UNL     1     -15.820  12.134 -19.962  0.00  0.00    -0.033 A 
ATOM     28  C   UNL     1     -14.876  13.186 -20.303  0.00  0.00    +0.005 A 
ATOM     29  C   UNL     1     -15.247  14.548 -20.269  0.00  0.00    +0.013 A 
BRANCH  18  19
ATOM     19  C   UNL     1     -15.318  10.679 -20.006  0.00  0.00    +0.119 C 
BRANCH  19  20
ATOM     20  N   UNL     1     -15.295   9.925 -18.717  0.00  0.00    -0.302 NA
ATOM     21  C   UNL     1     -14.409  10.605 -17.670  0.00  0.00    +0.066 C 
ATOM     22  C   UNL     1     -14.413   9.814 -16.321  0.00  0.00    -0.064 C 
ATOM     23  N   UNL     1     -13.950   8.378 -16.572  0.00  0.00    +0.379 N 
ATOM     24  C   UNL     1     -13.898   7.649 -15.297  0.00  0.00    -0.096 C 
ATOM     25  H   UNL     1     -12.913   8.424 -16.979  0.00  0.00    -0.082 HD
ATOM     26  C   UNL     1     -14.824   7.696 -17.615  0.00  0.00    -0.064 C 
ATOM     27  C   UNL     1     -14.836   8.505 -18.942  0.00  0.00    +0.066 C 
ENDBRANCH  19  20
ENDBRANCH  18  19
ENDBRANCH  14  15
ENDBRANCH  12  13
TORSDOF 6
ENDMDL
MODEL 3
REMARK VINA RESULT:      -8.1      6.430     11.946
REMARK  Name = C:\Users\Docking\Desktop\test protocol\1iep_ligandH.pdb
REMARK  8 active torsions:
REMARK  status: ('A' for Active; 'I' for Inactive)
REMARK    1  A    between atoms: _5  and  _11
REMARK    2  A    between atoms: _19  and  _21
REMARK    3  A    between atoms: _22  and  _66
REMARK    4  A    between atoms: _27  and  _30
REMARK    5  A    between atoms: _32  and  _33
REMARK    6  A    between atoms: _38  and  _43
REMARK    7  A    between atoms: _43  and  _46
REMARK    8  A    between atoms: _53  and  _55
REMARK                            x       y       z     vdW  Elec       q    Type
REMARK                         _______ _______ _______ _____ _____    ______ ____
ROOT
ATOM     10  C   UNL     1     -14.321   9.483 -19.981  0.00  0.00    +0.038 A 
ATOM     11  C   UNL     1     -14.987  10.733 -19.913  0.00  0.00    +0.047 A 
ATOM     12  C   UNL     1     -14.395  11.933 -20.482  0.00  0.00    +0.035 A 
ATOM     32  C   UNL     1     -13.124  11.823 -21.118  0.00  0.00    +0.024 A 
ATOM     33  C   UNL     1     -12.432  10.561 -21.195  0.00  0.00    +0.007 A 
ATOM     34  C   UNL     1     -13.010   9.374 -20.633  0.00  0.00    -0.029 A 
ATOM     35  C   UNL     1     -12.221   8.048 -20.740  0.00  0.00    +0.045 C 
ENDROOT
BRANCH  10   9
ATOM      4  C   UNL     1     -15.299   6.617 -16.257  0.00  0.00    +0.077 A 
ATOM      5  C   UNL     1     -14.497   7.403 -15.365  0.00  0.00    +0.048 A 
ATOM      6  C   UNL     1     -13.843   8.533 -15.906  0.00  0.00    +0.116 A 
ATOM      7  N   UNL     1     -13.988   8.844 -17.241  0.00  0.00    -0.223 NA
ATOM      8  C   UNL     1     -14.769   8.063 -18.074  0.00  0.00    +0.220 A 
ATOM      9  N   UNL     1     -14.935   8.362 -19.417  0.00  0.00    -0.283 N 
ATOM     36  H   UNL     1     -15.513   7.757 -20.000  0.00  0.00    +0.155 HD
ATOM     37  N   UNL     1     -15.402   6.978 -17.582  0.00  0.00    -0.214 NA
BRANCH   4   3
ATOM      1  C   UNL     1     -16.180   3.054 -14.903  0.00  0.00    +0.020 A 
ATOM      2  C   UNL     1     -15.404   4.207 -15.297  0.00  0.00    +0.013 A 
ATOM      3  C   UNL     1     -16.055   5.395 -15.835  0.00  0.00    +0.019 A 
ATOM     38  C   UNL     1     -17.505   5.384 -15.963  0.00  0.00    +0.120 A 
ATOM     39  N   UNL     1     -18.226   4.258 -15.577  0.00  0.00    -0.263 NA
ATOM     40  C   UNL     1     -17.610   3.109 -15.059  0.00  0.00    +0.111 A 
ENDBRANCH   4   3
ENDBRANCH  10   9
BRANCH  12  13
ATOM     13  N   UNL     1     -15.021  13.231 -20.436  0.00  0.00    -0.281 N 
ATOM     14  C   UNL     1     -16.346  13.548 -20.687  0.00  0.00    +0.248 C 
ATOM     30  O   UNL     1     -17.152  12.787 -21.202  0.00  0.00    -0.270 OA
ATOM     31  H   UNL     1     -14.413  14.012 -20.187  0.00  0.00    +0.155 HD
BRANCH  14  15
ATOM     15  C   UNL     1     -16.843  14.911 -20.329  0.00  0.00    +0.037 A 
ATOM     16  C   UNL     1     -18.277  15.204 -20.264  0.00  0.00    +0.013 A 
ATOM     17  C   UNL     1     -18.730  16.531 -19.933  0.00  0.00    +0.005 A 
ATOM     18  C   UNL     1     -17.746  17.577 -19.661  0.00  0.00    -0.033 A 
ATOM     28  C   UNL     1     -16.330  17.257 -19.727  0.00  0.00    +0.005 A 
ATOM     29  C   UNL     1     -15.882  15.957 -20.053  0.00  0.00    +0.013 A 
BRANCH  18  19
ATOM     19  C   UNL     1     -18.139  19.026 -19.320  0.00  0.00    +0.119 C 
BRANCH  19  20
ATOM     20  N   UNL     1     -19.018  19.235 -18.131  0.00  0.00    -0.302 NA
ATOM     21  C   UNL     1     -19.272  20.720 -17.859  0.00  0.00    +0.066 C 
ATOM     22  C   UNL     1     -20.212  20.920 -16.625  0.00  0.00    -0.064 C 
ATOM     23  N   UNL     1     -19.593  20.243 -15.401  0.00  0.00    +0.379 N 
ATOM     24  C   UNL     1     -20.445  20.478 -14.227  0.00  0.00    -0.096 C 
ATOM     25  H   UNL     1     -18.609  20.729 -15.208  0.00  0.00    -0.082 HD
ATOM     26  C   UNL     1     -19.334  18.766 -15.665  0.00  0.00    -0.064 C 
ATOM     27  C   UNL     1     -18.423  18.578 -16.910  0.00  0.00    +0.066 C 
ENDBRANCH  19  20
ENDBRANCH  18  19
ENDBRANCH  14  15
ENDBRANCH  12  13
TORSDOF 6
ENDMDL
MODEL 4
REMARK VINA RESULT:      -8.1      7.308     14.987
REMARK  Name = C:\Users\Docking\Desktop\test protocol\1iep_ligandH.pdb
REMARK  8 active torsions:
REMARK  status: ('A' for Active; 'I' for Inactive)
REMARK    1  A    between atoms: _5  and  _11
REMARK    2  A    between atoms: _19  and  _21
REMARK    3  A    between atoms: _22  and  _66
REMARK    4  A    between atoms: _27  and  _30
REMARK    5  A    between atoms: _32  and  _33
REMARK    6  A    between atoms: _38  and  _43
REMARK    7  A    between atoms: _43  and  _46
REMARK    8  A    between atoms: _53  and  _55
REMARK                            x       y       z     vdW  Elec       q    Type
REMARK                         _______ _______ _______ _____ _____    ______ ____
ROOT
ATOM     10  C   UNL     1     -14.359  14.103 -20.805  0.00  0.00    +0.038 A 
ATOM     11  C   UNL     1     -14.582  12.981 -19.968  0.00  0.00    +0.047 A 
ATOM     12  C   UNL     1     -14.110  11.657 -20.342  0.00  0.00    +0.035 A 
ATOM     32  C   UNL     1     -13.411  11.513 -21.576  0.00  0.00    +0.024 A 
ATOM     33  C   UNL     1     -13.176  12.643 -22.440  0.00  0.00    +0.007 A 
ATOM     34  C   UNL     1     -13.642  13.951 -22.077  0.00  0.00    -0.029 A 
ATOM     35  C   UNL     1     -13.367  15.125 -23.045  0.00  0.00    +0.045 C 
ENDROOT
BRANCH  10   9
ATOM      4  C   UNL     1     -17.793  16.954 -19.041  0.00  0.00    +0.077 A 
ATOM      5  C   UNL     1     -18.729  15.871 -18.951  0.00  0.00    +0.048 A 
ATOM      6  C   UNL     1     -18.290  14.597 -19.376  0.00  0.00    +0.116 A 
ATOM      7  N   UNL     1     -17.007  14.431 -19.853  0.00  0.00    -0.223 NA
ATOM      8  C   UNL     1     -16.131  15.497 -19.928  0.00  0.00    +0.220 A 
ATOM      9  N   UNL     1     -14.834  15.352 -20.396  0.00  0.00    -0.283 N 
ATOM     36  H   UNL     1     -14.220  16.165 -20.443  0.00  0.00    +0.155 HD
ATOM     37  N   UNL     1     -16.527  16.724 -19.530  0.00  0.00    -0.214 NA
BRANCH   4   3
ATOM      1  C   UNL     1     -18.632  20.115 -16.895  0.00  0.00    +0.020 A 
ATOM      2  C   UNL     1     -18.331  18.745 -17.240  0.00  0.00    +0.013 A 
ATOM      3  C   UNL     1     -18.108  18.359 -18.628  0.00  0.00    +0.019 A 
ATOM     38  C   UNL     1     -18.196  19.391 -19.649  0.00  0.00    +0.120 A 
ATOM     39  N   UNL     1     -18.488  20.702 -19.287  0.00  0.00    -0.263 NA
ATOM     40  C   UNL     1     -18.706  21.086 -17.955  0.00  0.00    +0.111 A 
ENDBRANCH   4   3
ENDBRANCH  10   9
BRANCH  12  13
ATOM     13  N   UNL     1     -14.315  10.479 -19.536  0.00  0.00    -0.281 N 
ATOM     14  C   UNL     1     -13.538  10.021 -18.484  0.00  0.00    +0.248 C 
ATOM     30  O   UNL     1     -12.424  10.444 -18.213  0.00  0.00    -0.270 OA
ATOM     31  H   UNL     1     -15.131   9.913 -19.770  0.00  0.00    +0.155 HD
BRANCH  14  15
ATOM     15  C   UNL     1     -14.070   8.926 -17.617  0.00  0.00    +0.037 A 
ATOM     16  C   UNL     1     -13.989   9.007 -16.156  0.00  0.00    +0.013 A 
ATOM     17  C   UNL     1     -14.495   7.929 -15.344  0.00  0.00    +0.005 A 
ATOM     18  C   UNL     1     -15.088   6.761 -15.991  0.00  0.00    -0.033 A 
ATOM     28  C   UNL     1     -15.160   6.710 -17.442  0.00  0.00    +0.005 A 
ATOM     29  C   UNL     1     -14.665   7.764 -18.242  0.00  0.00    +0.013 A 
BRANCH  18  19
ATOM     19  C   UNL     1     -15.633   5.555 -15.203  0.00  0.00    +0.119 C 
BRANCH  19  20
ATOM     20  N   UNL     1     -15.367   4.196 -15.763  0.00  0.00    -0.302 NA
ATOM     21  C   UNL     1     -16.536   3.684 -16.609  0.00  0.00    +0.066 C 
ATOM     22  C   UNL     1     -16.232   2.271 -17.205  0.00  0.00    -0.064 C 
ATOM     23  N   UNL     1     -15.920   1.298 -16.068  0.00  0.00    +0.379 N 
ATOM     24  C   UNL     1     -15.690  -0.045 -16.620  0.00  0.00    -0.096 C 
ATOM     25  H   UNL     1     -16.820   1.244 -15.412  0.00  0.00    -0.082 HD
ATOM     26  C   UNL     1     -14.760   1.800 -15.219  0.00  0.00    -0.064 C 
ATOM     27  C   UNL     1     -15.061   3.217 -14.656  0.00  0.00    +0.066 C 
ENDBRANCH  19  20
ENDBRANCH  18  19
ENDBRANCH  14  15
ENDBRANCH  12  13
TORSDOF 6
ENDMDL
MODEL 5
REMARK VINA RESULT:      -8.0      2.982     13.264
REMARK  Name = C:\Users\Docking\Desktop\test protocol\1iep_ligandH.pdb
REMARK  8 active torsions:
REMARK  status: ('A' for Active; 'I' for Inactive)
REMARK    1  A    between atoms: _5  and  _11
REMARK    2  A    between atoms: _19  and  _21
REMARK    3  A    between atoms: _22  and  _66
REMARK    4  A    between atoms: _27  and  _30
REMARK    5  A    between atoms: _32  and  _33
REMARK    6  A    between atoms: _38  and  _43
REMARK    7  A    between atoms: _43  and  _46
REMARK    8  A    between atoms: _53  and  _55
REMARK                            x       y       z     vdW  Elec       q    Type
REMARK                         _______ _______ _______ _____ _____    ______ ____
ROOT
ATOM     10  C   UNL     1     -19.127  19.955 -16.810  0.00  0.00    +0.038 A 
ATOM     11  C   UNL     1     -18.697  18.615 -16.990  0.00  0.00    +0.047 A 
ATOM     12  C   UNL     1     -18.805  17.958 -18.284  0.00  0.00    +0.035 A 
ATOM     32  C   UNL     1     -19.353  18.696 -19.373  0.00  0.00    +0.024 A 
ATOM     33  C   UNL     1     -19.795  20.058 -19.207  0.00  0.00    +0.007 A 
ATOM     34  C   UNL     1     -19.694  20.711 -17.934  0.00  0.00    -0.029 A 
ATOM     35  C   UNL     1     -20.190  22.171 -17.812  0.00  0.00    +0.045 C 
ENDROOT
BRANCH  10   9
ATOM      4  C   UNL     1     -20.918  21.266 -12.555  0.00  0.00    +0.077 A 
ATOM      5  C   UNL     1     -22.224  20.775 -12.887  0.00  0.00    +0.048 A 
ATOM      6  C   UNL     1     -22.395  20.198 -14.166  0.00  0.00    +0.116 A 
ATOM      7  N   UNL     1     -21.332  20.123 -15.039  0.00  0.00    -0.223 NA
ATOM      8  C   UNL     1     -20.085  20.609 -14.688  0.00  0.00    +0.220 A 
ATOM      9  N   UNL     1     -19.000  20.537 -15.547  0.00  0.00    -0.283 N 
ATOM     36  H   UNL     1     -18.099  20.913 -15.253  0.00  0.00    +0.155 HD
ATOM     37  N   UNL     1     -19.897  21.165 -13.473  0.00  0.00    -0.214 NA
BRANCH   4   3
ATOM      1  C   UNL     1     -19.364  23.597  -9.825  0.00  0.00    +0.020 A 
ATOM      2  C   UNL     1     -19.657  23.021 -11.117  0.00  0.00    +0.013 A 
ATOM      3  C   UNL     1     -20.579  21.900 -11.242  0.00  0.00    +0.019 A 
ATOM     38  C   UNL     1     -21.194  21.380 -10.029  0.00  0.00    +0.120 A 
ATOM     39  N   UNL     1     -20.891  21.954  -8.798  0.00  0.00    -0.263 NA
ATOM     40  C   UNL     1     -20.004  23.032  -8.666  0.00  0.00    +0.111 A 
ENDBRANCH   4   3
ENDBRANCH  10   9
BRANCH  12  13
ATOM     13  N   UNL     1     -18.393  16.597 -18.524  0.00  0.00    -0.281 N 
ATOM     14  C   UNL     1     -19.177  15.454 -18.508  0.00  0.00    +0.248 C 
ATOM     30  O   UNL     1     -20.317  15.404 -18.070  0.00  0.00    -0.270 OA
ATOM     31  H   UNL     1     -17.404  16.459 -18.732  0.00  0.00    +0.155 HD
BRANCH  14  15
ATOM     15  C   UNL     1     -18.606  14.180 -19.040  0.00  0.00    +0.037 A 
ATOM     16  C   UNL     1     -18.273  13.065 -18.150  0.00  0.00    +0.013 A 
ATOM     17  C   UNL     1     -17.708  11.853 -18.688  0.00  0.00    +0.005 A 
ATOM     18  C   UNL     1     -17.474  11.750 -20.126  0.00  0.00    -0.033 A 
ATOM     28  C   UNL     1     -17.818  12.868 -20.987  0.00  0.00    +0.005 A 
ATOM     29  C   UNL     1     -18.371  14.058 -20.463  0.00  0.00    +0.013 A 
BRANCH  18  19
ATOM     19  C   UNL     1     -16.855  10.502 -20.785  0.00  0.00    +0.119 C 
BRANCH  19  20
ATOM     20  N   UNL     1     -15.385  10.298 -20.616  0.00  0.00    -0.302 NA
ATOM     21  C   UNL     1     -15.060   9.469 -19.370  0.00  0.00    +0.066 C 
ATOM     22  C   UNL     1     -13.520   9.245 -19.221  0.00  0.00    -0.064 C 
ATOM     23  N   UNL     1     -12.814  10.601 -19.169  0.00  0.00    +0.379 N 
ATOM     24  C   UNL     1     -11.372  10.395 -18.970  0.00  0.00    -0.096 C 
ATOM     25  H   UNL     1     -13.203  11.150 -18.280  0.00  0.00    -0.082 HD
ATOM     26  C   UNL     1     -13.134  11.433 -20.402  0.00  0.00    -0.064 C 
ATOM     27  C   UNL     1     -14.668  11.624 -20.557  0.00  0.00    +0.066 C 
ENDBRANCH  19  20
ENDBRANCH  18  19
ENDBRANCH  14  15
ENDBRANCH  12  13
TORSDOF 6
ENDMDL
