MODEL 1
REMARK VINA RESULT:      -8.0      0.000      0.000
REMARK  Name = C:\Users\Docking\Desktop\test protocol\1iep_ligandH.pdb
REMARK  8 active torsions:
REMARK  status: ('A' for Active; 'I' for Inactive)
REMARK    1  A    between atoms: _5  and  _11
REMARK    2  A    between atoms: _19  and  _21
REMARK    3  A    between atoms: _22  and  _66
REMARK    4  A    between atoms: _27  and  _30
REMARK    5  A    between atoms: _32  and  _33
REMARK    6  A    between atoms: _38  and  _43
REMARK    7  A    between atoms: _43  and  _46
REMARK    8  A    between atoms: _53  and  _55
REMARK                            x       y       z     vdW  Elec       q    Type
REMARK                         _______ _______ _______ _____ _____    ______ ____
ROOT
ATOM     10  C   UNL     1      20.026 -16.529 -36.055  0.00  0.00    +0.038 A 
ATOM     11  C   UNL     1      18.932 -16.349 -35.170  0.00  0.00    +0.047 A 
ATOM     12  C   UNL     1      18.767 -17.191 -33.995  0.00  0.00    +0.035 A 
ATOM     32  C   UNL     1      19.738 -18.206 -33.750  0.00  0.00    +0.024 A 
ATOM     33  C   UNL     1      20.856 -18.403 -34.640  0.00  0.00    +0.007 A 
ATOM     34  C   UNL     1      21.021 -17.577 -35.801  0.00  0.00    -0.029 A 
ATOM     35  C   UNL     1      22.235 -17.838 -36.723  0.00  0.00    +0.045 C 
ENDROOT
BRANCH  10   9
ATOM      4  C   UNL     1      19.312 -15.547 -40.698  0.00  0.00    +0.077 A 
ATOM      5  C   UNL     1      18.695 -16.821 -40.934  0.00  0.00    +0.048 A 
ATOM      6  C   UNL     1      18.586 -17.702 -39.835  0.00  0.00    +0.116 A 
ATOM      7  N   UNL     1      19.063 -17.328 -38.597  0.00  0.00    -0.223 NA
ATOM      8  C   UNL     1      19.655 -16.093 -38.405  0.00  0.00    +0.220 A 
ATOM      9  N   UNL     1      20.134 -15.692 -37.167  0.00  0.00    -0.283 N 
ATOM     36  H   UNL     1      20.571 -14.776 -37.068  0.00  0.00    +0.155 HD
ATOM     37  N   UNL     1      19.772 -15.234 -39.439  0.00  0.00    -0.214 NA
BRANCH   4   3
ATOM      1  C   UNL     1      18.888 -12.335 -42.890  0.00  0.00    +0.020 A 
ATOM      2  C   UNL     1      18.668 -13.310 -41.847  0.00  0.00    +0.013 A 
ATOM      3  C   UNL     1      19.497 -14.506 -41.758  0.00  0.00    +0.019 A 
ATOM     38  C   UNL     1      20.548 -14.686 -42.748  0.00  0.00    +0.120 A 
ATOM     39  N   UNL     1      20.736 -13.731 -43.742  0.00  0.00    -0.263 NA
ATOM     40  C   UNL     1      19.943 -12.577 -43.838  0.00  0.00    +0.111 A 
ENDBRANCH   4   3
ENDBRANCH  10   9
BRANCH  12  13
ATOM     13  N   UNL     1      17.673 -17.061 -33.066  0.00  0.00    -0.281 N 
ATOM     14  C   UNL     1      16.478 -17.762 -33.053  0.00  0.00    +0.248 C 
ATOM     30  O   UNL     1      16.078 -18.463 -33.971  0.00  0.00    -0.270 OA
ATOM     31  H   UNL     1      17.793 -16.367 -32.328  0.00  0.00    +0.155 HD
BRANCH  14  15
ATOM     15  C   UNL     1      15.593 -17.659 -31.853  0.00  0.00    +0.037 A 
ATOM     16  C   UNL     1      16.127 -17.824 -30.499  0.00  0.00    +0.013 A 
ATOM     17  C   UNL     1      15.248 -17.737 -29.359  0.00  0.00    +0.005 A 
ATOM     18  C   UNL     1      13.825 -17.481 -29.570  0.00  0.00    -0.033 A 
ATOM     28  C   UNL     1      13.323 -17.316 -30.925  0.00  0.00    +0.005 A 
ATOM     29  C   UNL     1      14.181 -17.402 -32.044  0.00  0.00    +0.013 A 
BRANCH  18  19
ATOM     19  C   UNL     1      12.811 -17.393 -28.415  0.00  0.00    +0.119 C 
BRANCH  19  20
ATOM     20  N   UNL     1      13.217 -16.615 -27.207  0.00  0.00    -0.302 NA
ATOM     21  C   UNL     1      12.285 -16.870 -26.019  0.00  0.00    +0.066 C 
ATOM     22  C   UNL     1      12.737 -16.065 -24.757  0.00  0.00    -0.064 C 
ATOM     23  N   UNL     1      12.786 -14.575 -25.096  0.00  0.00    +0.379 N 
ATOM     24  C   UNL     1      13.155 -13.810 -23.896  0.00  0.00    -0.096 C 
ATOM     25  H   UNL     1      11.759 -14.262 -25.394  0.00  0.00    -0.082 HD
ATOM     26  C   UNL     1      13.709 -14.312 -26.278  0.00  0.00    -0.064 C 
ATOM     27  C   UNL     1      13.268 -15.139 -27.518  0.00  0.00    +0.066 C 
ENDBRANCH  19  20
ENDBRANCH  18  19
ENDBRANCH  14  15
ENDBRANCH  12  13
TORSDOF 6
ENDMDL
MODEL 2
REMARK VINA RESULT:      -7.8      6.806     16.909
REMARK  Name = C:\Users\Docking\Desktop\test protocol\1iep_ligandH.pdb
REMARK  8 active torsions:
REMARK  status: ('A' for Active; 'I' for Inactive)
REMARK    1  A    between atoms: _5  and  _11
REMARK    2  A    between atoms: _19  and  _21
REMARK    3  A    between atoms: _22  and  _66
REMARK    4  A    between atoms: _27  and  _30
REMARK    5  A    between atoms: _32  and  _33
REMARK    6  A    between atoms: _38  and  _43
REMARK    7  A    between atoms: _43  and  _46
REMARK    8  A    between atoms: _53  and  _55
REMARK                            x       y       z     vdW  Elec       q    Type
REMARK                         _______ _______ _______ _____ _____    ______ ____
ROOT
ATOM     10  C   UNL     1      18.880 -13.052 -42.734  0.00  0.00    +0.038 A 
ATOM     11  C   UNL     1      19.938 -12.275 -43.271  0.00  0.00    +0.047 A 
ATOM     12  C   UNL     1      19.912 -11.819 -44.652  0.00  0.00    +0.035 A 
ATOM     32  C   UNL     1      18.790 -12.171 -45.458  0.00  0.00    +0.024 A 
ATOM     33  C   UNL     1      17.707 -12.962 -44.929  0.00  0.00    +0.007 A 
ATOM     34  C   UNL     1      17.728 -13.416 -43.568  0.00  0.00    -0.029 A 
ATOM     35  C   UNL     1      16.542 -14.266 -43.057  0.00  0.00    +0.045 C 
ENDROOT
BRANCH  10   9
ATOM      4  C   UNL     1      19.561 -16.410 -39.372  0.00  0.00    +0.077 A 
ATOM      5  C   UNL     1      19.753 -17.438 -40.354  0.00  0.00    +0.048 A 
ATOM      6  C   UNL     1      19.661 -17.063 -41.713  0.00  0.00    +0.116 A 
ATOM      7  N   UNL     1      19.398 -15.754 -42.054  0.00  0.00    -0.223 NA
ATOM      8  C   UNL     1      19.216 -14.787 -41.082  0.00  0.00    +0.220 A 
ATOM      9  N   UNL     1      18.957 -13.463 -41.402  0.00  0.00    -0.283 N 
ATOM     36  H   UNL     1      18.822 -12.781 -40.655  0.00  0.00    +0.155 HD
ATOM     37  N   UNL     1      19.297 -15.120 -39.777  0.00  0.00    -0.214 NA
BRANCH   4   3
ATOM      1  C   UNL     1      19.702 -15.853 -35.503  0.00  0.00    +0.020 A 
ATOM      2  C   UNL     1      19.634 -15.568 -36.918  0.00  0.00    +0.013 A 
ATOM      3  C   UNL     1      19.631 -16.649 -37.896  0.00  0.00    +0.019 A 
ATOM     38  C   UNL     1      19.697 -18.017 -37.406  0.00  0.00    +0.120 A 
ATOM     39  N   UNL     1      19.763 -18.261 -36.038  0.00  0.00    -0.263 NA
ATOM     40  C   UNL     1      19.769 -17.229 -35.087  0.00  0.00    +0.111 A 
ENDBRANCH   4   3
ENDBRANCH  10   9
BRANCH  12  13
ATOM     13  N   UNL     1      20.961 -11.034 -45.254  0.00  0.00    -0.281 N 
ATOM     14  C   UNL     1      20.855  -9.794 -45.861  0.00  0.00    +0.248 C 
ATOM     30  O   UNL     1      19.798  -9.263 -46.169  0.00  0.00    -0.270 OA
ATOM     31  H   UNL     1      21.895 -11.443 -45.230  0.00  0.00    +0.155 HD
BRANCH  14  15
ATOM     15  C   UNL     1      22.104  -9.040 -46.185  0.00  0.00    +0.037 A 
ATOM     16  C   UNL     1      23.295  -9.725 -46.694  0.00  0.00    +0.013 A 
ATOM     17  C   UNL     1      24.492  -8.976 -46.983  0.00  0.00    +0.005 A 
ATOM     18  C   UNL     1      24.503  -7.531 -46.765  0.00  0.00    -0.033 A 
ATOM     28  C   UNL     1      23.306  -6.876 -46.264  0.00  0.00    +0.005 A 
ATOM     29  C   UNL     1      22.131  -7.607 -45.979  0.00  0.00    +0.013 A 
BRANCH  18  19
ATOM     19  C   UNL     1      25.743  -6.656 -47.026  0.00  0.00    +0.119 C 
BRANCH  19  20
ATOM     20  N   UNL     1      26.970  -7.341 -47.532  0.00  0.00    -0.302 NA
ATOM     21  C   UNL     1      27.937  -7.698 -46.399  0.00  0.00    +0.066 C 
ATOM     22  C   UNL     1      29.204  -8.434 -46.943  0.00  0.00    -0.064 C 
ATOM     23  N   UNL     1      29.894  -7.553 -47.987  0.00  0.00    +0.379 N 
ATOM     24  C   UNL     1      31.117  -8.217 -48.458  0.00  0.00    -0.096 C 
ATOM     25  H   UNL     1      30.195  -6.605 -47.482  0.00  0.00    -0.082 HD
ATOM     26  C   UNL     1      28.938  -7.191 -49.115  0.00  0.00    -0.064 C 
ATOM     27  C   UNL     1      27.669  -6.486 -48.560  0.00  0.00    +0.066 C 
ENDBRANCH  19  20
ENDBRANCH  18  19
ENDBRANCH  14  15
ENDBRANCH  12  13
TORSDOF 6
ENDMDL
MODEL 3
REMARK VINA RESULT:      -7.8     16.486     20.805
REMARK  Name = C:\Users\Docking\Desktop\test protocol\1iep_ligandH.pdb
REMARK  8 active torsions:
REMARK  status: ('A' for Active; 'I' for Inactive)
REMARK    1  A    between atoms: _5  and  _11
REMARK    2  A    between atoms: _19  and  _21
REMARK    3  A    between atoms: _22  and  _66
REMARK    4  A    between atoms: _27  and  _30
REMARK    5  A    between atoms: _32  and  _33
REMARK    6  A    between atoms: _38  and  _43
REMARK    7  A    between atoms: _43  and  _46
REMARK    8  A    between atoms: _53  and  _55
REMARK                            x       y       z     vdW  Elec       q    Type
REMARK                         _______ _______ _______ _____ _____    ______ ____
ROOT
ATOM     10  C   UNL     1      18.629  -1.588 -44.644  0.00  0.00    +0.038 A 
ATOM     11  C   UNL     1      19.227  -0.384 -44.194  0.00  0.00    +0.047 A 
ATOM     12  C   UNL     1      18.448   0.629 -43.498  0.00  0.00    +0.035 A 
ATOM     32  C   UNL     1      17.063   0.381 -43.276  0.00  0.00    +0.024 A 
ATOM     33  C   UNL     1      16.438  -0.837 -43.728  0.00  0.00    +0.007 A 
ATOM     34  C   UNL     1      17.200  -1.839 -44.416  0.00  0.00    -0.029 A 
ATOM     35  C   UNL     1      16.477  -3.123 -44.884  0.00  0.00    +0.045 C 
ENDROOT
BRANCH  10   9
ATOM      4  C   UNL     1      21.961  -5.043 -44.677  0.00  0.00    +0.077 A 
ATOM      5  C   UNL     1      22.154  -4.952 -43.259  0.00  0.00    +0.048 A 
ATOM      6  C   UNL     1      21.382  -3.998 -42.558  0.00  0.00    +0.116 A 
ATOM      7  N   UNL     1      20.485  -3.201 -43.236  0.00  0.00    -0.223 NA
ATOM      8  C   UNL     1      20.325  -3.313 -44.605  0.00  0.00    +0.220 A 
ATOM      9  N   UNL     1      19.424  -2.527 -45.306  0.00  0.00    -0.283 N 
ATOM     36  H   UNL     1      19.340  -2.635 -46.317  0.00  0.00    +0.155 HD
ATOM     37  N   UNL     1      21.052  -4.215 -45.297  0.00  0.00    -0.214 NA
BRANCH   4   3
ATOM      1  C   UNL     1      24.549  -6.589 -47.170  0.00  0.00    +0.020 A 
ATOM      2  C   UNL     1      23.870  -5.622 -46.338  0.00  0.00    +0.013 A 
ATOM      3  C   UNL     1      22.701  -6.003 -45.555  0.00  0.00    +0.019 A 
ATOM     38  C   UNL     1      22.241  -7.381 -45.637  0.00  0.00    +0.120 A 
ATOM     39  N   UNL     1      22.914  -8.290 -46.448  0.00  0.00    -0.263 NA
ATOM     40  C   UNL     1      24.039  -7.934 -47.207  0.00  0.00    +0.111 A 
ENDBRANCH   4   3
ENDBRANCH  10   9
BRANCH  12  13
ATOM     13  N   UNL     1      19.000   1.875 -43.026  0.00  0.00    -0.281 N 
ATOM     14  C   UNL     1      18.836   3.139 -43.568  0.00  0.00    +0.248 C 
ATOM     30  O   UNL     1      18.361   3.361 -44.672  0.00  0.00    -0.270 OA
ATOM     31  H   UNL     1      19.581   1.818 -42.189  0.00  0.00    +0.155 HD
BRANCH  14  15
ATOM     15  C   UNL     1      19.276   4.327 -42.775  0.00  0.00    +0.037 A 
ATOM     16  C   UNL     1      20.468   4.275 -41.925  0.00  0.00    +0.013 A 
ATOM     17  C   UNL     1      20.860   5.430 -41.158  0.00  0.00    +0.005 A 
ATOM     18  C   UNL     1      20.059   6.649 -41.238  0.00  0.00    -0.033 A 
ATOM     28  C   UNL     1      18.884   6.675 -42.094  0.00  0.00    +0.005 A 
ATOM     29  C   UNL     1      18.496   5.545 -42.846  0.00  0.00    +0.013 A 
BRANCH  18  19
ATOM     19  C   UNL     1      20.392   7.923 -40.438  0.00  0.00    +0.119 C 
BRANCH  19  20
ATOM     20  N   UNL     1      20.126   7.896 -38.969  0.00  0.00    -0.302 NA
ATOM     21  C   UNL     1      18.731   7.351 -38.647  0.00  0.00    +0.066 C 
ATOM     22  C   UNL     1      18.479   7.309 -37.105  0.00  0.00    -0.064 C 
ATOM     23  N   UNL     1      18.660   8.712 -36.522  0.00  0.00    +0.379 N 
ATOM     24  C   UNL     1      18.366   8.686 -35.082  0.00  0.00    -0.096 C 
ATOM     25  H   UNL     1      17.911   9.379 -37.009  0.00  0.00    -0.082 HD
ATOM     26  C   UNL     1      20.043   9.262 -36.840  0.00  0.00    -0.064 C 
ATOM     27  C   UNL     1      20.295   9.272 -38.374  0.00  0.00    +0.066 C 
ENDBRANCH  19  20
ENDBRANCH  18  19
ENDBRANCH  14  15
ENDBRANCH  12  13
TORSDOF 6
ENDMDL
MODEL 4
REMARK VINA RESULT:      -7.7     15.808     16.939
REMARK  Name = C:\Users\Docking\Desktop\test protocol\1iep_ligandH.pdb
REMARK  8 active torsions:
REMARK  status: ('A' for Active; 'I' for Inactive)
REMARK    1  A    between atoms: _5  and  _11
REMARK    2  A    between atoms: _19  and  _21
REMARK    3  A    between atoms: _22  and  _66
REMARK    4  A    between atoms: _27  and  _30
REMARK    5  A    between atoms: _32  and  _33
REMARK    6  A    between atoms: _38  and  _43
REMARK    7  A    between atoms: _43  and  _46
REMARK    8  A    between atoms: _53  and  _55
REMARK                            x       y       z     vdW  Elec       q    Type
REMARK                         _______ _______ _______ _____ _____    ______ ____
ROOT
ATOM     10  C   UNL     1      15.122  -3.620 -42.039  0.00  0.00    +0.038 A 
ATOM     11  C   UNL     1      14.544  -2.957 -40.927  0.00  0.00    +0.047 A 
ATOM     12  C   UNL     1      13.106  -2.756 -40.834  0.00  0.00    +0.035 A 
ATOM     32  C   UNL     1      12.286  -3.246 -41.892  0.00  0.00    +0.024 A 
ATOM     33  C   UNL     1      12.857  -3.921 -43.031  0.00  0.00    +0.007 A 
ATOM     34  C   UNL     1      14.275  -4.120 -43.129  0.00  0.00    -0.029 A 
ATOM     35  C   UNL     1      14.833  -4.845 -44.376  0.00  0.00    +0.045 C 
ENDROOT
BRANCH  10   9
ATOM      4  C   UNL     1      19.523  -2.186 -43.308  0.00  0.00    +0.077 A 
ATOM      5  C   UNL     1      19.016  -1.023 -43.977  0.00  0.00    +0.048 A 
ATOM      6  C   UNL     1      17.616  -0.834 -43.978  0.00  0.00    +0.116 A 
ATOM      7  N   UNL     1      16.794  -1.747 -43.353  0.00  0.00    -0.223 NA
ATOM      8  C   UNL     1      17.316  -2.859 -42.718  0.00  0.00    +0.220 A 
ATOM      9  N   UNL     1      16.508  -3.785 -42.076  0.00  0.00    -0.283 N 
ATOM     36  H   UNL     1      16.931  -4.596 -41.626  0.00  0.00    +0.155 HD
ATOM     37  N   UNL     1      18.649  -3.063 -42.705  0.00  0.00    -0.214 NA
BRANCH   4   3
ATOM      1  C   UNL     1      23.066  -3.097 -41.921  0.00  0.00    +0.020 A 
ATOM      2  C   UNL     1      21.657  -2.775 -41.953  0.00  0.00    +0.013 A 
ATOM      3  C   UNL     1      20.979  -2.523 -43.218  0.00  0.00    +0.019 A 
ATOM     38  C   UNL     1      21.761  -2.604 -44.443  0.00  0.00    +0.120 A 
ATOM     39  N   UNL     1      23.116  -2.914 -44.381  0.00  0.00    -0.263 NA
ATOM     40  C   UNL     1      23.780  -3.158 -43.169  0.00  0.00    +0.111 A 
ENDBRANCH   4   3
ENDBRANCH  10   9
BRANCH  12  13
ATOM     13  N   UNL     1      12.462  -2.083 -39.733  0.00  0.00    -0.281 N 
ATOM     14  C   UNL     1      12.928  -0.998 -39.009  0.00  0.00    +0.248 C 
ATOM     30  O   UNL     1      14.073  -0.573 -39.061  0.00  0.00    -0.270 OA
ATOM     31  H   UNL     1      11.553  -2.451 -39.454  0.00  0.00    +0.155 HD
BRANCH  14  15
ATOM     15  C   UNL     1      11.991  -0.292 -38.083  0.00  0.00    +0.037 A 
ATOM     16  C   UNL     1      10.649  -0.814 -37.817  0.00  0.00    +0.013 A 
ATOM     17  C   UNL     1       9.759  -0.104 -36.933  0.00  0.00    +0.005 A 
ATOM     18  C   UNL     1      10.210   1.136 -36.306  0.00  0.00    -0.033 A 
ATOM     28  C   UNL     1      11.549   1.628 -36.584  0.00  0.00    +0.005 A 
ATOM     29  C   UNL     1      12.424   0.936 -37.451  0.00  0.00    +0.013 A 
BRANCH  18  19
ATOM     19  C   UNL     1       9.320   1.970 -35.366  0.00  0.00    +0.119 C 
BRANCH  19  20
ATOM     20  N   UNL     1       8.249   1.247 -34.618  0.00  0.00    -0.302 NA
ATOM     21  C   UNL     1       6.850   1.616 -35.117  0.00  0.00    +0.066 C 
ATOM     22  C   UNL     1       5.743   0.833 -34.339  0.00  0.00    -0.064 C 
ATOM     23  N   UNL     1       5.876   1.119 -32.842  0.00  0.00    +0.379 N 
ATOM     24  C   UNL     1       4.801   0.431 -32.113  0.00  0.00    -0.096 C 
ATOM     25  H   UNL     1       5.738   2.215 -32.694  0.00  0.00    -0.082 HD
ATOM     26  C   UNL     1       7.266   0.757 -32.338  0.00  0.00    -0.064 C 
ATOM     27  C   UNL     1       8.360   1.519 -33.138  0.00  0.00    +0.066 C 
ENDBRANCH  19  20
ENDBRANCH  18  19
ENDBRANCH  14  15
ENDBRANCH  12  13
TORSDOF 6
ENDMDL
MODEL 5
REMARK VINA RESULT:      -7.7      2.487     13.232
REMARK  Name = C:\Users\Docking\Desktop\test protocol\1iep_ligandH.pdb
REMARK  8 active torsions:
REMARK  status: ('A' for Active; 'I' for Inactive)
REMARK    1  A    between atoms: _5  and  _11
REMARK    2  A    between atoms: _19  and  _21
REMARK    3  A    between atoms: _22  and  _66
REMARK    4  A    between atoms: _27  and  _30
REMARK    5  A    between atoms: _32  and  _33
REMARK    6  A    between atoms: _38  and  _43
REMARK    7  A    between atoms: _43  and  _46
REMARK    8  A    between atoms: _53  and  _55
REMARK                            x       y       z     vdW  Elec       q    Type
REMARK                         _______ _______ _______ _____ _____    ______ ____
ROOT
ATOM     10  C   UNL     1      18.916 -16.857 -33.805  0.00  0.00    +0.038 A 
ATOM     11  C   UNL     1      18.921 -16.468 -35.169  0.00  0.00    +0.047 A 
ATOM     12  C   UNL     1      20.049 -16.774 -36.034  0.00  0.00    +0.035 A 
ATOM     32  C   UNL     1      21.155 -17.480 -35.478  0.00  0.00    +0.024 A 
ATOM     33  C   UNL     1      21.167 -17.882 -34.093  0.00  0.00    +0.007 A 
ATOM     34  C   UNL     1      20.058 -17.581 -33.234  0.00  0.00    -0.029 A 
ATOM     35  C   UNL     1      20.127 -18.031 -31.756  0.00  0.00    +0.045 C 
ENDROOT
BRANCH  10   9
ATOM      4  C   UNL     1      14.506 -17.762 -32.141  0.00  0.00    +0.077 A 
ATOM      5  C   UNL     1      14.392 -18.959 -32.923  0.00  0.00    +0.048 A 
ATOM      6  C   UNL     1      15.488 -19.303 -33.745  0.00  0.00    +0.116 A 
ATOM      7  N   UNL     1      16.609 -18.502 -33.776  0.00  0.00    -0.223 NA
ATOM      8  C   UNL     1      16.685 -17.353 -33.010  0.00  0.00    +0.220 A 
ATOM      9  N   UNL     1      17.806 -16.537 -33.019  0.00  0.00    -0.283 N 
ATOM     36  H   UNL     1      17.820 -15.694 -32.446  0.00  0.00    +0.155 HD
ATOM     37  N   UNL     1      15.651 -17.002 -32.218  0.00  0.00    -0.214 NA
BRANCH   4   3
ATOM      1  C   UNL     1      12.480 -15.589 -29.596  0.00  0.00    +0.020 A 
ATOM      2  C   UNL     1      13.544 -16.022 -30.471  0.00  0.00    +0.013 A 
ATOM      3  C   UNL     1      13.433 -17.267 -31.220  0.00  0.00    +0.019 A 
ATOM     38  C   UNL     1      12.222 -18.057 -31.060  0.00  0.00    +0.120 A 
ATOM     39  N   UNL     1      11.214 -17.616 -30.209  0.00  0.00    -0.263 NA
ATOM     40  C   UNL     1      11.310 -16.421 -29.482  0.00  0.00    +0.111 A 
ENDBRANCH   4   3
ENDBRANCH  10   9
BRANCH  12  13
ATOM     13  N   UNL     1      20.115 -16.397 -37.425  0.00  0.00    -0.281 N 
ATOM     14  C   UNL     1      19.625 -17.092 -38.519  0.00  0.00    +0.248 C 
ATOM     30  O   UNL     1      19.242 -18.252 -38.486  0.00  0.00    -0.270 OA
ATOM     31  H   UNL     1      20.578 -15.511 -37.627  0.00  0.00    +0.155 HD
BRANCH  14  15
ATOM     15  C   UNL     1      19.565 -16.402 -39.843  0.00  0.00    +0.037 A 
ATOM     16  C   UNL     1      19.684 -14.946 -39.948  0.00  0.00    +0.013 A 
ATOM     17  C   UNL     1      19.606 -14.305 -41.237  0.00  0.00    +0.005 A 
ATOM     18  C   UNL     1      19.408 -15.121 -42.432  0.00  0.00    -0.033 A 
ATOM     28  C   UNL     1      19.297 -16.564 -42.300  0.00  0.00    +0.005 A 
ATOM     29  C   UNL     1      19.373 -17.196 -41.038  0.00  0.00    +0.013 A 
BRANCH  18  19
ATOM     19  C   UNL     1      19.291 -14.520 -43.845  0.00  0.00    +0.119 C 
BRANCH  19  20
ATOM     20  N   UNL     1      20.559 -14.119 -44.525  0.00  0.00    -0.302 NA
ATOM     21  C   UNL     1      20.378 -12.866 -45.387  0.00  0.00    +0.066 C 
ATOM     22  C   UNL     1      21.720 -12.448 -46.072  0.00  0.00    -0.064 C 
ATOM     23  N   UNL     1      22.244 -13.613 -46.914  0.00  0.00    +0.379 N 
ATOM     24  C   UNL     1      23.475 -13.204 -47.606  0.00  0.00    -0.096 C 
ATOM     25  H   UNL     1      21.478 -13.840 -47.691  0.00  0.00    -0.082 HD
ATOM     26  C   UNL     1      22.424 -14.864 -46.065  0.00  0.00    -0.064 C 
ATOM     27  C   UNL     1      21.092 -15.254 -45.365  0.00  0.00    +0.066 C 
ENDBRANCH  19  20
ENDBRANCH  18  19
ENDBRANCH  14  15
ENDBRANCH  12  13
TORSDOF 6
ENDMDL
