MODEL 1
REMARK VINA RESULT:      -8.7      0.000      0.000
REMARK  Name = C:\Users\Docking\Desktop\test protocol\1iep_ligandH.pdb
REMARK  8 active torsions:
REMARK  status: ('A' for Active; 'I' for Inactive)
REMARK    1  A    between atoms: _5  and  _11
REMARK    2  A    between atoms: _19  and  _21
REMARK    3  A    between atoms: _22  and  _66
REMARK    4  A    between atoms: _27  and  _30
REMARK    5  A    between atoms: _32  and  _33
REMARK    6  A    between atoms: _38  and  _43
REMARK    7  A    between atoms: _43  and  _46
REMARK    8  A    between atoms: _53  and  _55
REMARK                            x       y       z     vdW  Elec       q    Type
REMARK                         _______ _______ _______ _____ _____    ______ ____
ROOT
ATOM     10  C   UNL     1      12.630 -15.818  43.580  0.00  0.00    +0.038 A 
ATOM     11  C   UNL     1      12.292 -14.819  44.528  0.00  0.00    +0.047 A 
ATOM     12  C   UNL     1      13.280 -14.302  45.462  0.00  0.00    +0.035 A 
ATOM     32  C   UNL     1      14.605 -14.824  45.401  0.00  0.00    +0.024 A 
ATOM     33  C   UNL     1      14.966 -15.840  44.444  0.00  0.00    +0.007 A 
ATOM     34  C   UNL     1      13.995 -16.355  43.522  0.00  0.00    -0.029 A 
ATOM     35  C   UNL     1      14.437 -17.449  42.522  0.00  0.00    +0.045 C 
ENDROOT
BRANCH  10   9
ATOM      4  C   UNL     1      10.414 -15.826  39.323  0.00  0.00    +0.077 A 
ATOM      5  C   UNL     1      11.281 -14.808  38.803  0.00  0.00    +0.048 A 
ATOM      6  C   UNL     1      12.280 -14.304  39.665  0.00  0.00    +0.116 A 
ATOM      7  N   UNL     1      12.394 -14.789  40.950  0.00  0.00    -0.223 NA
ATOM      8  C   UNL     1      11.540 -15.770  41.421  0.00  0.00    +0.220 A 
ATOM      9  N   UNL     1      11.642 -16.278  42.707  0.00  0.00    -0.283 N 
ATOM     36  H   UNL     1      10.988 -16.995  43.018  0.00  0.00    +0.155 HD
ATOM     37  N   UNL     1      10.577 -16.266  40.617  0.00  0.00    -0.214 NA
BRANCH   4   3
ATOM      1  C   UNL     1       6.931 -16.572  37.706  0.00  0.00    +0.020 A 
ATOM      2  C   UNL     1       7.959 -15.921  38.485  0.00  0.00    +0.013 A 
ATOM      3  C   UNL     1       9.312 -16.460  38.532  0.00  0.00    +0.019 A 
ATOM     38  C   UNL     1       9.595 -17.668  37.772  0.00  0.00    +0.120 A 
ATOM     39  N   UNL     1       8.585 -18.274  37.032  0.00  0.00    -0.263 NA
ATOM     40  C   UNL     1       7.278 -17.765  36.980  0.00  0.00    +0.111 A 
ENDBRANCH   4   3
ENDBRANCH  10   9
BRANCH  12  13
ATOM     13  N   UNL     1      12.992 -13.294  46.452  0.00  0.00    -0.281 N 
ATOM     14  C   UNL     1      13.202 -11.928  46.363  0.00  0.00    +0.248 C 
ATOM     30  O   UNL     1      13.871 -11.387  45.495  0.00  0.00    -0.270 OA
ATOM     31  H   UNL     1      12.584 -13.629  47.325  0.00  0.00    +0.155 HD
BRANCH  14  15
ATOM     15  C   UNL     1      12.593 -11.034  47.395  0.00  0.00    +0.037 A 
ATOM     16  C   UNL     1      13.389 -10.503  48.504  0.00  0.00    +0.013 A 
ATOM     17  C   UNL     1      12.773  -9.657  49.496  0.00  0.00    +0.005 A 
ATOM     18  C   UNL     1      11.352  -9.336  49.380  0.00  0.00    -0.033 A 
ATOM     28  C   UNL     1      10.588  -9.872  48.266  0.00  0.00    +0.005 A 
ATOM     29  C   UNL     1      11.188 -10.703  47.293  0.00  0.00    +0.013 A 
BRANCH  18  19
ATOM     19  C   UNL     1      10.607  -8.458  50.404  0.00  0.00    +0.119 C 
BRANCH  19  20
ATOM     20  N   UNL     1      11.418  -7.849  51.500  0.00  0.00    -0.302 NA
ATOM     21  C   UNL     1      10.641  -7.779  52.818  0.00  0.00    +0.066 C 
ATOM     22  C   UNL     1      11.511  -7.160  53.959  0.00  0.00    -0.064 C 
ATOM     23  N   UNL     1      11.987  -5.769  53.537  0.00  0.00    +0.379 N 
ATOM     24  C   UNL     1      12.757  -5.161  54.631  0.00  0.00    -0.096 C 
ATOM     25  H   UNL     1      11.083  -5.139  53.368  0.00  0.00    -0.082 HD
ATOM     26  C   UNL     1      12.759  -5.829  52.226  0.00  0.00    -0.064 C 
ATOM     27  C   UNL     1      11.895  -6.473  51.106  0.00  0.00    +0.066 C 
ENDBRANCH  19  20
ENDBRANCH  18  19
ENDBRANCH  14  15
ENDBRANCH  12  13
TORSDOF 6
ENDMDL
MODEL 2
REMARK VINA RESULT:      -8.6     45.715     49.067
REMARK  Name = C:\Users\Docking\Desktop\test protocol\1iep_ligandH.pdb
REMARK  8 active torsions:
REMARK  status: ('A' for Active; 'I' for Inactive)
REMARK    1  A    between atoms: _5  and  _11
REMARK    2  A    between atoms: _19  and  _21
REMARK    3  A    between atoms: _22  and  _66
REMARK    4  A    between atoms: _27  and  _30
REMARK    5  A    between atoms: _32  and  _33
REMARK    6  A    between atoms: _38  and  _43
REMARK    7  A    between atoms: _43  and  _46
REMARK    8  A    between atoms: _53  and  _55
REMARK                            x       y       z     vdW  Elec       q    Type
REMARK                         _______ _______ _______ _____ _____    ______ ____
ROOT
ATOM     10  C   UNL     1       0.331 -53.989  60.964  0.00  0.00    +0.038 A 
ATOM     11  C   UNL     1       0.621 -55.273  60.435  0.00  0.00    +0.047 A 
ATOM     12  C   UNL     1       1.567 -56.161  61.093  0.00  0.00    +0.035 A 
ATOM     32  C   UNL     1       2.198 -55.710  62.288  0.00  0.00    +0.024 A 
ATOM     33  C   UNL     1       1.916 -54.407  62.839  0.00  0.00    +0.007 A 
ATOM     34  C   UNL     1       0.985 -53.526  62.193  0.00  0.00    -0.029 A 
ATOM     35  C   UNL     1       0.726 -52.138  62.824  0.00  0.00    +0.045 C 
ENDROOT
BRANCH  10   9
ATOM      4  C   UNL     1      -0.766 -50.654  57.690  0.00  0.00    +0.077 A 
ATOM      5  C   UNL     1       0.607 -50.496  57.305  0.00  0.00    +0.048 A 
ATOM      6  C   UNL     1       1.565 -51.286  57.979  0.00  0.00    +0.116 A 
ATOM      7  N   UNL     1       1.168 -52.166  58.962  0.00  0.00    -0.223 NA
ATOM      8  C   UNL     1      -0.164 -52.293  59.311  0.00  0.00    +0.220 A 
ATOM      9  N   UNL     1      -0.586 -53.177  60.291  0.00  0.00    -0.283 N 
ATOM     36  H   UNL     1      -1.577 -53.236  60.525  0.00  0.00    +0.155 HD
ATOM     37  N   UNL     1      -1.098 -51.548  58.683  0.00  0.00    -0.214 NA
BRANCH   4   3
ATOM      1  C   UNL     1      -2.855 -47.872  55.903  0.00  0.00    +0.020 A 
ATOM      2  C   UNL     1      -1.731 -48.564  56.491  0.00  0.00    +0.013 A 
ATOM      3  C   UNL     1      -1.895 -49.892  57.069  0.00  0.00    +0.019 A 
ATOM     38  C   UNL     1      -3.218 -50.496  57.035  0.00  0.00    +0.120 A 
ATOM     39  N   UNL     1      -4.282 -49.805  56.463  0.00  0.00    -0.263 NA
ATOM     40  C   UNL     1      -4.137 -48.526  55.905  0.00  0.00    +0.111 A 
ENDBRANCH   4   3
ENDBRANCH  10   9
BRANCH  12  13
ATOM     13  N   UNL     1       1.907 -57.472  60.599  0.00  0.00    -0.281 N 
ATOM     14  C   UNL     1       1.630 -58.699  61.179  0.00  0.00    +0.248 C 
ATOM     30  O   UNL     1       1.233 -58.847  62.325  0.00  0.00    -0.270 OA
ATOM     31  H   UNL     1       2.413 -57.499  59.713  0.00  0.00    +0.155 HD
BRANCH  14  15
ATOM     15  C   UNL     1       1.839 -59.942  60.376  0.00  0.00    +0.037 A 
ATOM     16  C   UNL     1       0.714 -60.638  59.747  0.00  0.00    +0.013 A 
ATOM     17  C   UNL     1       0.940 -61.844  58.991  0.00  0.00    +0.005 A 
ATOM     18  C   UNL     1       2.300 -62.361  58.859  0.00  0.00    -0.033 A 
ATOM     28  C   UNL     1       3.399 -61.648  59.489  0.00  0.00    +0.005 A 
ATOM     29  C   UNL     1       3.180 -60.466  60.231  0.00  0.00    +0.013 A 
BRANCH  18  19
ATOM     19  C   UNL     1       2.633 -63.653  58.089  0.00  0.00    +0.119 C 
BRANCH  19  20
ATOM     20  N   UNL     1       3.171 -64.800  58.878  0.00  0.00    -0.302 NA
ATOM     21  C   UNL     1       3.682 -65.928  57.977  0.00  0.00    +0.066 C 
ATOM     22  C   UNL     1       4.263 -67.111  58.820  0.00  0.00    -0.064 C 
ATOM     23  N   UNL     1       3.188 -67.627  59.777  0.00  0.00    +0.379 N 
ATOM     24  C   UNL     1       3.712 -68.777  60.530  0.00  0.00    -0.096 C 
ATOM     25  H   UNL     1       2.331 -67.988  59.161  0.00  0.00    -0.082 HD
ATOM     26  C   UNL     1       2.672 -66.511  60.675  0.00  0.00    -0.064 C 
ATOM     27  C   UNL     1       2.125 -65.329  59.828  0.00  0.00    +0.066 C 
ENDBRANCH  19  20
ENDBRANCH  18  19
ENDBRANCH  14  15
ENDBRANCH  12  13
TORSDOF 6
ENDMDL
MODEL 3
REMARK VINA RESULT:      -8.4     22.070     23.334
REMARK  Name = C:\Users\Docking\Desktop\test protocol\1iep_ligandH.pdb
REMARK  8 active torsions:
REMARK  status: ('A' for Active; 'I' for Inactive)
REMARK    1  A    between atoms: _5  and  _11
REMARK    2  A    between atoms: _19  and  _21
REMARK    3  A    between atoms: _22  and  _66
REMARK    4  A    between atoms: _27  and  _30
REMARK    5  A    between atoms: _32  and  _33
REMARK    6  A    between atoms: _38  and  _43
REMARK    7  A    between atoms: _43  and  _46
REMARK    8  A    between atoms: _53  and  _55
REMARK                            x       y       z     vdW  Elec       q    Type
REMARK                         _______ _______ _______ _____ _____    ______ ____
ROOT
ATOM     10  C   UNL     1       7.946 -17.353  66.379  0.00  0.00    +0.038 A 
ATOM     11  C   UNL     1       8.218 -16.104  66.994  0.00  0.00    +0.047 A 
ATOM     12  C   UNL     1       9.354 -15.937  67.887  0.00  0.00    +0.035 A 
ATOM     32  C   UNL     1      10.195 -17.062  68.129  0.00  0.00    +0.024 A 
ATOM     33  C   UNL     1       9.933 -18.339  67.512  0.00  0.00    +0.007 A 
ATOM     34  C   UNL     1       8.812 -18.510  66.633  0.00  0.00    -0.029 A 
ATOM     35  C   UNL     1       8.575 -19.904  66.005  0.00  0.00    +0.045 C 
ENDROOT
BRANCH  10   9
ATOM      4  C   UNL     1       3.259 -18.026  65.596  0.00  0.00    +0.077 A 
ATOM      5  C   UNL     1       2.992 -18.213  66.993  0.00  0.00    +0.048 A 
ATOM      6  C   UNL     1       4.090 -18.135  67.880  0.00  0.00    +0.116 A 
ATOM      7  N   UNL     1       5.356 -17.888  67.394  0.00  0.00    -0.223 NA
ATOM      8  C   UNL     1       5.579 -17.714  66.040  0.00  0.00    +0.220 A 
ATOM      9  N   UNL     1       6.842 -17.457  65.531  0.00  0.00    -0.283 N 
ATOM     36  H   UNL     1       6.966 -17.342  64.525  0.00  0.00    +0.155 HD
ATOM     37  N   UNL     1       4.547 -17.785  65.173  0.00  0.00    -0.214 NA
BRANCH   4   3
ATOM      1  C   UNL     1       0.605 -16.983  62.918  0.00  0.00    +0.020 A 
ATOM      2  C   UNL     1       1.622 -16.880  63.939  0.00  0.00    +0.013 A 
ATOM      3  C   UNL     1       2.203 -18.076  64.536  0.00  0.00    +0.019 A 
ATOM     38  C   UNL     1       1.730 -19.372  64.073  0.00  0.00    +0.120 A 
ATOM     39  N   UNL     1       0.748 -19.441  63.089  0.00  0.00    -0.263 NA
ATOM     40  C   UNL     1       0.181 -18.296  62.509  0.00  0.00    +0.111 A 
ENDBRANCH   4   3
ENDBRANCH  10   9
BRANCH  12  13
ATOM     13  N   UNL     1       9.676 -14.695  68.547  0.00  0.00    -0.281 N 
ATOM     14  C   UNL     1       9.714 -13.424  67.998  0.00  0.00    +0.248 C 
ATOM     30  O   UNL     1       9.685 -13.188  66.799  0.00  0.00    -0.270 OA
ATOM     31  H   UNL     1       9.902 -14.762  69.539  0.00  0.00    +0.155 HD
BRANCH  14  15
ATOM     15  C   UNL     1       9.812 -12.246  68.912  0.00  0.00    +0.037 A 
ATOM     16  C   UNL     1       9.348 -10.920  68.495  0.00  0.00    +0.013 A 
ATOM     17  C   UNL     1       9.471  -9.797  69.390  0.00  0.00    +0.005 A 
ATOM     18  C   UNL     1      10.060  -9.995  70.712  0.00  0.00    -0.033 A 
ATOM     28  C   UNL     1      10.507 -11.322  71.102  0.00  0.00    +0.005 A 
ATOM     29  C   UNL     1      10.389 -12.425  70.227  0.00  0.00    +0.013 A 
BRANCH  18  19
ATOM     19  C   UNL     1      10.249  -8.849  71.724  0.00  0.00    +0.119 C 
BRANCH  19  20
ATOM     20  N   UNL     1      11.330  -7.859  71.441  0.00  0.00    -0.302 NA
ATOM     21  C   UNL     1      10.829  -6.687  70.593  0.00  0.00    +0.066 C 
ATOM     22  C   UNL     1      11.967  -5.650  70.326  0.00  0.00    -0.064 C 
ATOM     23  N   UNL     1      13.141  -6.350  69.640  0.00  0.00    +0.379 N 
ATOM     24  C   UNL     1      14.190  -5.366  69.335  0.00  0.00    -0.096 C 
ATOM     25  H   UNL     1      12.771  -6.761  68.672  0.00  0.00    -0.082 HD
ATOM     26  C   UNL     1      13.645  -7.519  70.476  0.00  0.00    -0.064 C 
ATOM     27  C   UNL     1      12.498  -8.529  70.760  0.00  0.00    +0.066 C 
ENDBRANCH  19  20
ENDBRANCH  18  19
ENDBRANCH  14  15
ENDBRANCH  12  13
TORSDOF 6
ENDMDL
MODEL 4
REMARK VINA RESULT:      -8.3     22.507     23.721
REMARK  Name = C:\Users\Docking\Desktop\test protocol\1iep_ligandH.pdb
REMARK  8 active torsions:
REMARK  status: ('A' for Active; 'I' for Inactive)
REMARK    1  A    between atoms: _5  and  _11
REMARK    2  A    between atoms: _19  and  _21
REMARK    3  A    between atoms: _22  and  _66
REMARK    4  A    between atoms: _27  and  _30
REMARK    5  A    between atoms: _32  and  _33
REMARK    6  A    between atoms: _38  and  _43
REMARK    7  A    between atoms: _43  and  _46
REMARK    8  A    between atoms: _53  and  _55
REMARK                            x       y       z     vdW  Elec       q    Type
REMARK                         _______ _______ _______ _____ _____    ______ ____
ROOT
ATOM     10  C   UNL     1       8.869 -17.454  66.734  0.00  0.00    +0.038 A 
ATOM     11  C   UNL     1       8.894 -16.140  67.268  0.00  0.00    +0.047 A 
ATOM     12  C   UNL     1      10.008 -15.680  68.082  0.00  0.00    +0.035 A 
ATOM     32  C   UNL     1      11.082 -16.584  68.330  0.00  0.00    +0.024 A 
ATOM     33  C   UNL     1      11.072 -17.923  67.796  0.00  0.00    +0.007 A 
ATOM     34  C   UNL     1       9.974 -18.384  66.994  0.00  0.00    -0.029 A 
ATOM     35  C   UNL     1      10.014 -19.832  66.453  0.00  0.00    +0.045 C 
ENDROOT
BRANCH  10   9
ATOM      4  C   UNL     1       4.429 -19.216  66.263  0.00  0.00    +0.077 A 
ATOM      5  C   UNL     1       4.289 -19.402  67.679  0.00  0.00    +0.048 A 
ATOM      6  C   UNL     1       5.385 -19.038  68.493  0.00  0.00    +0.116 A 
ATOM      7  N   UNL     1       6.531 -18.527  67.922  0.00  0.00    -0.223 NA
ATOM      8  C   UNL     1       6.634 -18.362  66.553  0.00  0.00    +0.220 A 
ATOM      9  N   UNL     1       7.774 -17.843  65.959  0.00  0.00    -0.283 N 
ATOM     36  H   UNL     1       7.813 -17.744  64.945  0.00  0.00    +0.155 HD
ATOM     37  N   UNL     1       5.601 -18.703  65.755  0.00  0.00    -0.214 NA
BRANCH   4   3
ATOM      1  C   UNL     1       2.139 -21.151  63.750  0.00  0.00    +0.020 A 
ATOM      2  C   UNL     1       3.191 -20.881  64.703  0.00  0.00    +0.013 A 
ATOM      3  C   UNL     1       3.357 -19.550  65.273  0.00  0.00    +0.019 A 
ATOM     38  C   UNL     1       2.433 -18.506  64.855  0.00  0.00    +0.120 A 
ATOM     39  N   UNL     1       1.431 -18.795  63.934  0.00  0.00    -0.263 NA
ATOM     40  C   UNL     1       1.263 -20.072  63.378  0.00  0.00    +0.111 A 
ENDBRANCH   4   3
ENDBRANCH  10   9
BRANCH  12  13
ATOM     13  N   UNL     1      10.086 -14.360  68.657  0.00  0.00    -0.281 N 
ATOM     14  C   UNL     1      10.938 -13.327  68.306  0.00  0.00    +0.248 C 
ATOM     30  O   UNL     1      11.915 -13.452  67.582  0.00  0.00    -0.270 OA
ATOM     31  H   UNL     1       9.432 -14.164  69.415  0.00  0.00    +0.155 HD
BRANCH  14  15
ATOM     15  C   UNL     1      10.677 -11.959  68.849  0.00  0.00    +0.037 A 
ATOM     16  C   UNL     1      11.672 -11.264  69.669  0.00  0.00    +0.013 A 
ATOM     17  C   UNL     1      11.388  -9.952  70.195  0.00  0.00    +0.005 A 
ATOM     18  C   UNL     1      10.101  -9.326  69.899  0.00  0.00    -0.033 A 
ATOM     28  C   UNL     1       9.135 -10.035  69.078  0.00  0.00    +0.005 A 
ATOM     29  C   UNL     1       9.409 -11.322  68.562  0.00  0.00    +0.013 A 
BRANCH  18  19
ATOM     19  C   UNL     1       9.704  -7.938  70.435  0.00  0.00    +0.119 C 
BRANCH  19  20
ATOM     20  N   UNL     1      10.692  -7.232  71.305  0.00  0.00    -0.302 NA
ATOM     21  C   UNL     1      10.031  -6.609  72.537  0.00  0.00    +0.066 C 
ATOM     22  C   UNL     1      11.082  -5.895  73.448  0.00  0.00    -0.064 C 
ATOM     23  N   UNL     1      11.820  -4.831  72.632  0.00  0.00    +0.379 N 
ATOM     24  C   UNL     1      12.768  -4.118  73.500  0.00  0.00    -0.096 C 
ATOM     25  H   UNL     1      11.063  -4.092  72.279  0.00  0.00    -0.082 HD
ATOM     26  C   UNL     1      12.478  -5.442  71.403  0.00  0.00    -0.064 C 
ATOM     27  C   UNL     1      11.429  -6.174  70.521  0.00  0.00    +0.066 C 
ENDBRANCH  19  20
ENDBRANCH  18  19
ENDBRANCH  14  15
ENDBRANCH  12  13
TORSDOF 6
ENDMDL
MODEL 5
REMARK VINA RESULT:      -8.3     22.790     27.451
REMARK  Name = C:\Users\Docking\Desktop\test protocol\1iep_ligandH.pdb
REMARK  8 active torsions:
REMARK  status: ('A' for Active; 'I' for Inactive)
REMARK    1  A    between atoms: _5  and  _11
REMARK    2  A    between atoms: _19  and  _21
REMARK    3  A    between atoms: _22  and  _66
REMARK    4  A    between atoms: _27  and  _30
REMARK    5  A    between atoms: _32  and  _33
REMARK    6  A    between atoms: _38  and  _43
REMARK    7  A    between atoms: _43  and  _46
REMARK    8  A    between atoms: _53  and  _55
REMARK                            x       y       z     vdW  Elec       q    Type
REMARK                         _______ _______ _______ _____ _____    ______ ____
ROOT
ATOM     10  C   UNL     1       9.371 -19.132  67.568  0.00  0.00    +0.038 A 
ATOM     11  C   UNL     1       9.809 -19.949  68.642  0.00  0.00    +0.047 A 
ATOM     12  C   UNL     1      10.954 -19.572  69.455  0.00  0.00    +0.035 A 
ATOM     32  C   UNL     1      11.629 -18.354  69.149  0.00  0.00    +0.024 A 
ATOM     33  C   UNL     1      11.198 -17.513  68.061  0.00  0.00    +0.007 A 
ATOM     34  C   UNL     1      10.070 -17.881  67.253  0.00  0.00    -0.029 A 
ATOM     35  C   UNL     1       9.657 -16.943  66.095  0.00  0.00    +0.045 C 
ENDROOT
BRANCH  10   9
ATOM      4  C   UNL     1       4.653 -19.225  66.689  0.00  0.00    +0.077 A 
ATOM      5  C   UNL     1       4.364 -18.410  67.834  0.00  0.00    +0.048 A 
ATOM      6  C   UNL     1       5.457 -17.993  68.627  0.00  0.00    +0.116 A 
ATOM      7  N   UNL     1       6.739 -18.370  68.290  0.00  0.00    -0.223 NA
ATOM      8  C   UNL     1       6.983 -19.158  67.181  0.00  0.00    +0.220 A 
ATOM      9  N   UNL     1       8.265 -19.542  66.820  0.00  0.00    -0.283 N 
ATOM     36  H   UNL     1       8.403 -20.131  65.998  0.00  0.00    +0.155 HD
ATOM     37  N   UNL     1       5.956 -19.570  66.409  0.00  0.00    -0.214 NA
BRANCH   4   3
ATOM      1  C   UNL     1       2.689 -21.465  64.155  0.00  0.00    +0.020 A 
ATOM      2  C   UNL     1       3.729 -21.012  65.048  0.00  0.00    +0.013 A 
ATOM      3  C   UNL     1       3.606 -19.742  65.753  0.00  0.00    +0.019 A 
ATOM     38  C   UNL     1       2.407 -18.948  65.529  0.00  0.00    +0.120 A 
ATOM     39  N   UNL     1       1.422 -19.409  64.662  0.00  0.00    -0.263 NA
ATOM     40  C   UNL     1       1.530 -20.629  63.977  0.00  0.00    +0.111 A 
ENDBRANCH   4   3
ENDBRANCH  10   9
BRANCH  12  13
ATOM     13  N   UNL     1      11.450 -20.365  70.553  0.00  0.00    -0.281 N 
ATOM     14  C   UNL     1      10.748 -20.827  71.655  0.00  0.00    +0.248 C 
ATOM     30  O   UNL     1       9.632 -20.445  71.973  0.00  0.00    -0.270 OA
ATOM     31  H   UNL     1      12.438 -20.617  70.513  0.00  0.00    +0.155 HD
BRANCH  14  15
ATOM     15  C   UNL     1      11.385 -21.849  72.540  0.00  0.00    +0.037 A 
ATOM     16  C   UNL     1      10.589 -22.646  73.476  0.00  0.00    +0.013 A 
ATOM     17  C   UNL     1      11.230 -23.613  74.331  0.00  0.00    +0.005 A 
ATOM     18  C   UNL     1      12.678 -23.791  74.250  0.00  0.00    -0.033 A 
ATOM     28  C   UNL     1      13.444 -22.991  73.308  0.00  0.00    +0.005 A 
ATOM     29  C   UNL     1      12.818 -22.041  72.470  0.00  0.00    +0.013 A 
BRANCH  18  19
ATOM     19  C   UNL     1      13.449 -24.785  75.138  0.00  0.00    +0.119 C 
BRANCH  19  20
ATOM     20  N   UNL     1      14.088 -25.953  74.462  0.00  0.00    -0.302 NA
ATOM     21  C   UNL     1      15.470 -25.607  73.900  0.00  0.00    +0.066 C 
ATOM     22  C   UNL     1      16.133 -26.846  73.215  0.00  0.00    -0.064 C 
ATOM     23  N   UNL     1      15.213 -27.367  72.109  0.00  0.00    +0.379 N 
ATOM     24  C   UNL     1      15.860 -28.497  71.425  0.00  0.00    -0.096 C 
ATOM     25  H   UNL     1      15.084 -26.549  71.363  0.00  0.00    -0.082 HD
ATOM     26  C   UNL     1      13.836 -27.712  72.659  0.00  0.00    -0.064 C 
ATOM     27  C   UNL     1      13.199 -26.482  73.363  0.00  0.00    +0.066 C 
ENDBRANCH  19  20
ENDBRANCH  18  19
ENDBRANCH  14  15
ENDBRANCH  12  13
TORSDOF 6
ENDMDL
