MODEL 1
REMARK VINA RESULT:      -8.8      0.000      0.000
REMARK  Name = C:\Users\Docking\Desktop\test protocol\1iep_ligandH.pdb
REMARK  8 active torsions:
REMARK  status: ('A' for Active; 'I' for Inactive)
REMARK    1  A    between atoms: _5  and  _11
REMARK    2  A    between atoms: _19  and  _21
REMARK    3  A    between atoms: _22  and  _66
REMARK    4  A    between atoms: _27  and  _30
REMARK    5  A    between atoms: _32  and  _33
REMARK    6  A    between atoms: _38  and  _43
REMARK    7  A    between atoms: _43  and  _46
REMARK    8  A    between atoms: _53  and  _55
REMARK                            x       y       z     vdW  Elec       q    Type
REMARK                         _______ _______ _______ _____ _____    ______ ____
ROOT
ATOM     10  C   UNL     1       6.020 -18.072  66.021  0.00  0.00    +0.038 A 
ATOM     11  C   UNL     1       6.036 -16.785  66.615  0.00  0.00    +0.047 A 
ATOM     12  C   UNL     1       4.800 -16.092  66.944  0.00  0.00    +0.035 A 
ATOM     32  C   UNL     1       3.564 -16.743  66.657  0.00  0.00    +0.024 A 
ATOM     33  C   UNL     1       3.530 -18.052  66.053  0.00  0.00    +0.007 A 
ATOM     34  C   UNL     1       4.746 -18.738  65.723  0.00  0.00    -0.029 A 
ATOM     35  C   UNL     1       4.649 -20.137  65.071  0.00  0.00    +0.045 C 
ENDROOT
BRANCH  10   9
ATOM      4  C   UNL     1       9.589 -21.107  67.066  0.00  0.00    +0.077 A 
ATOM      5  C   UNL     1       8.992 -21.471  68.319  0.00  0.00    +0.048 A 
ATOM      6  C   UNL     1       7.770 -20.849  68.660  0.00  0.00    +0.116 A 
ATOM      7  N   UNL     1       7.197 -19.933  67.805  0.00  0.00    -0.223 NA
ATOM      8  C   UNL     1       7.800 -19.603  66.605  0.00  0.00    +0.220 A 
ATOM      9  N   UNL     1       7.237 -18.691  65.726  0.00  0.00    -0.283 N 
ATOM     36  H   UNL     1       7.717 -18.469  64.854  0.00  0.00    +0.155 HD
ATOM     37  N   UNL     1       8.968 -20.182  66.257  0.00  0.00    -0.214 NA
BRANCH   4   3
ATOM      1  C   UNL     1      12.854 -23.237  66.746  0.00  0.00    +0.020 A 
ATOM      2  C   UNL     1      11.614 -22.718  67.274  0.00  0.00    +0.013 A 
ATOM      3  C   UNL     1      10.878 -21.680  66.564  0.00  0.00    +0.019 A 
ATOM     38  C   UNL     1      11.428 -21.185  65.311  0.00  0.00    +0.120 A 
ATOM     39  N   UNL     1      12.625 -21.704  64.827  0.00  0.00    -0.263 NA
ATOM     40  C   UNL     1      13.343 -22.702  65.503  0.00  0.00    +0.111 A 
ENDBRANCH   4   3
ENDBRANCH  10   9
BRANCH  12  13
ATOM     13  N   UNL     1       4.753 -14.781  67.540  0.00  0.00    -0.281 N 
ATOM     14  C   UNL     1       4.429 -14.450  68.846  0.00  0.00    +0.248 C 
ATOM     30  O   UNL     1       3.919 -15.218  69.647  0.00  0.00    -0.270 OA
ATOM     31  H   UNL     1       4.988 -14.001  66.926  0.00  0.00    +0.155 HD
BRANCH  14  15
ATOM     15  C   UNL     1       4.696 -13.060  69.326  0.00  0.00    +0.037 A 
ATOM     16  C   UNL     1       6.048 -12.496  69.306  0.00  0.00    +0.013 A 
ATOM     17  C   UNL     1       6.281 -11.158  69.791  0.00  0.00    +0.005 A 
ATOM     18  C   UNL     1       5.158 -10.375  70.299  0.00  0.00    -0.033 A 
ATOM     28  C   UNL     1       3.826 -10.957  70.303  0.00  0.00    +0.005 A 
ATOM     29  C   UNL     1       3.594 -12.268  69.829  0.00  0.00    +0.013 A 
BRANCH  18  19
ATOM     19  C   UNL     1       5.317  -8.948  70.856  0.00  0.00    +0.119 C 
BRANCH  19  20
ATOM     20  N   UNL     1       4.896  -8.714  72.269  0.00  0.00    -0.302 NA
ATOM     21  C   UNL     1       4.602  -7.236  72.544  0.00  0.00    +0.066 C 
ATOM     22  C   UNL     1       4.141  -7.013  74.021  0.00  0.00    -0.064 C 
ATOM     23  N   UNL     1       5.216  -7.538  74.973  0.00  0.00    +0.379 N 
ATOM     24  C   UNL     1       4.812  -7.277  76.363  0.00  0.00    -0.096 C 
ATOM     25  H   UNL     1       6.150  -6.961  74.779  0.00  0.00    -0.082 HD
ATOM     26  C   UNL     1       5.516  -9.006  74.705  0.00  0.00    -0.064 C 
ATOM     27  C   UNL     1       5.946  -9.221  73.227  0.00  0.00    +0.066 C 
ENDBRANCH  19  20
ENDBRANCH  18  19
ENDBRANCH  14  15
ENDBRANCH  12  13
TORSDOF 6
ENDMDL
MODEL 2
REMARK VINA RESULT:      -8.7      1.804      2.680
REMARK  Name = C:\Users\Docking\Desktop\test protocol\1iep_ligandH.pdb
REMARK  8 active torsions:
REMARK  status: ('A' for Active; 'I' for Inactive)
REMARK    1  A    between atoms: _5  and  _11
REMARK    2  A    between atoms: _19  and  _21
REMARK    3  A    between atoms: _22  and  _66
REMARK    4  A    between atoms: _27  and  _30
REMARK    5  A    between atoms: _32  and  _33
REMARK    6  A    between atoms: _38  and  _43
REMARK    7  A    between atoms: _43  and  _46
REMARK    8  A    between atoms: _53  and  _55
REMARK                            x       y       z     vdW  Elec       q    Type
REMARK                         _______ _______ _______ _____ _____    ______ ____
ROOT
ATOM     10  C   UNL     1       5.242 -16.097  66.981  0.00  0.00    +0.038 A 
ATOM     11  C   UNL     1       5.360 -15.007  67.881  0.00  0.00    +0.047 A 
ATOM     12  C   UNL     1       4.222 -14.151  68.180  0.00  0.00    +0.035 A 
ATOM     32  C   UNL     1       2.977 -14.437  67.546  0.00  0.00    +0.024 A 
ATOM     33  C   UNL     1       2.840 -15.541  66.629  0.00  0.00    +0.007 A 
ATOM     34  C   UNL     1       3.959 -16.386  66.328  0.00  0.00    -0.029 A 
ATOM     35  C   UNL     1       3.756 -17.551  65.332  0.00  0.00    +0.045 C 
ENDROOT
BRANCH  10   9
ATOM      4  C   UNL     1       8.146 -19.777  68.013  0.00  0.00    +0.077 A 
ATOM      5  C   UNL     1       7.371 -20.142  69.163  0.00  0.00    +0.048 A 
ATOM      6  C   UNL     1       6.237 -19.353  69.460  0.00  0.00    +0.116 A 
ATOM      7  N   UNL     1       5.911 -18.281  68.657  0.00  0.00    -0.223 NA
ATOM      8  C   UNL     1       6.681 -17.955  67.556  0.00  0.00    +0.220 A 
ATOM      9  N   UNL     1       6.367 -16.886  66.731  0.00  0.00    -0.283 N 
ATOM     36  H   UNL     1       6.964 -16.673  65.932  0.00  0.00    +0.155 HD
ATOM     37  N   UNL     1       7.770 -18.692  67.253  0.00  0.00    -0.214 NA
BRANCH   4   3
ATOM      1  C   UNL     1      10.641 -22.632  67.052  0.00  0.00    +0.020 A 
ATOM      2  C   UNL     1       9.434 -21.968  67.488  0.00  0.00    +0.013 A 
ATOM      3  C   UNL     1       9.370 -20.514  67.568  0.00  0.00    +0.019 A 
ATOM     38  C   UNL     1      10.555 -19.755  67.196  0.00  0.00    +0.120 A 
ATOM     39  N   UNL     1      11.704 -20.422  66.781  0.00  0.00    -0.263 NA
ATOM     40  C   UNL     1      11.777 -21.821  66.702  0.00  0.00    +0.111 A 
ENDBRANCH   4   3
ENDBRANCH  10   9
BRANCH  12  13
ATOM     13  N   UNL     1       4.283 -13.025  69.078  0.00  0.00    -0.281 N 
ATOM     14  C   UNL     1       4.298 -13.041  70.463  0.00  0.00    +0.248 C 
ATOM     30  O   UNL     1       4.044 -14.022  71.146  0.00  0.00    -0.270 OA
ATOM     31  H   UNL     1       4.321 -12.105  68.639  0.00  0.00    +0.155 HD
BRANCH  14  15
ATOM     15  C   UNL     1       4.629 -11.781  71.196  0.00  0.00    +0.037 A 
ATOM     16  C   UNL     1       4.757 -11.761  72.655  0.00  0.00    +0.013 A 
ATOM     17  C   UNL     1       5.060 -10.529  73.338  0.00  0.00    +0.005 A 
ATOM     18  C   UNL     1       5.239  -9.304  72.561  0.00  0.00    -0.033 A 
ATOM     28  C   UNL     1       5.111  -9.353  71.114  0.00  0.00    +0.005 A 
ATOM     29  C   UNL     1       4.813 -10.559  70.441  0.00  0.00    +0.013 A 
BRANCH  18  19
ATOM     19  C   UNL     1       5.544  -7.940  73.208  0.00  0.00    +0.119 C 
BRANCH  19  20
ATOM     20  N   UNL     1       4.390  -7.020  73.438  0.00  0.00    -0.302 NA
ATOM     21  C   UNL     1       4.355  -5.877  72.420  0.00  0.00    +0.066 C 
ATOM     22  C   UNL     1       3.129  -4.937  72.662  0.00  0.00    -0.064 C 
ATOM     23  N   UNL     1       3.184  -4.389  74.089  0.00  0.00    +0.379 N 
ATOM     24  C   UNL     1       2.065  -3.459  74.301  0.00  0.00    -0.096 C 
ATOM     25  H   UNL     1       4.131  -3.809  74.192  0.00  0.00    -0.082 HD
ATOM     26  C   UNL     1       3.223  -5.519  75.108  0.00  0.00    -0.064 C 
ATOM     27  C   UNL     1       4.427  -6.464  74.841  0.00  0.00    +0.066 C 
ENDBRANCH  19  20
ENDBRANCH  18  19
ENDBRANCH  14  15
ENDBRANCH  12  13
TORSDOF 6
ENDMDL
MODEL 3
REMARK VINA RESULT:      -8.2      5.416     15.176
REMARK  Name = C:\Users\Docking\Desktop\test protocol\1iep_ligandH.pdb
REMARK  8 active torsions:
REMARK  status: ('A' for Active; 'I' for Inactive)
REMARK    1  A    between atoms: _5  and  _11
REMARK    2  A    between atoms: _19  and  _21
REMARK    3  A    between atoms: _22  and  _66
REMARK    4  A    between atoms: _27  and  _30
REMARK    5  A    between atoms: _32  and  _33
REMARK    6  A    between atoms: _38  and  _43
REMARK    7  A    between atoms: _43  and  _46
REMARK    8  A    between atoms: _53  and  _55
REMARK                            x       y       z     vdW  Elec       q    Type
REMARK                         _______ _______ _______ _____ _____    ______ ____
ROOT
ATOM     10  C   UNL     1       3.914  -7.982  74.021  0.00  0.00    +0.038 A 
ATOM     11  C   UNL     1       3.591  -8.890  72.980  0.00  0.00    +0.047 A 
ATOM     12  C   UNL     1       4.423 -10.052  72.710  0.00  0.00    +0.035 A 
ATOM     32  C   UNL     1       5.576 -10.260  73.522  0.00  0.00    +0.024 A 
ATOM     33  C   UNL     1       5.920  -9.347  74.583  0.00  0.00    +0.007 A 
ATOM     34  C   UNL     1       5.104  -8.198  74.853  0.00  0.00    -0.029 A 
ATOM     35  C   UNL     1       5.524  -7.248  75.999  0.00  0.00    +0.045 C 
ENDROOT
BRANCH  10   9
ATOM      4  C   UNL     1       2.679  -3.400  73.302  0.00  0.00    +0.077 A 
ATOM      5  C   UNL     1       3.807  -3.168  72.447  0.00  0.00    +0.048 A 
ATOM      6  C   UNL     1       4.685  -4.253  72.223  0.00  0.00    +0.116 A 
ATOM      7  N   UNL     1       4.443  -5.473  72.815  0.00  0.00    -0.223 NA
ATOM      8  C   UNL     1       3.347  -5.662  73.636  0.00  0.00    +0.220 A 
ATOM      9  N   UNL     1       3.079  -6.883  74.236  0.00  0.00    -0.283 N 
ATOM     36  H   UNL     1       2.264  -6.980  74.842  0.00  0.00    +0.155 HD
ATOM     37  N   UNL     1       2.494  -4.642  73.867  0.00  0.00    -0.214 NA
BRANCH   4   3
ATOM      1  C   UNL     1       0.190  -0.395  73.029  0.00  0.00    +0.020 A 
ATOM      2  C   UNL     1       1.176  -1.384  72.659  0.00  0.00    +0.013 A 
ATOM      3  C   UNL     1       1.660  -2.354  73.633  0.00  0.00    +0.019 A 
ATOM     38  C   UNL     1       1.122  -2.296  74.984  0.00  0.00    +0.120 A 
ATOM     39  N   UNL     1       0.175  -1.331  75.312  0.00  0.00    -0.263 NA
ATOM     40  C   UNL     1      -0.297  -0.391  74.383  0.00  0.00    +0.111 A 
ENDBRANCH   4   3
ENDBRANCH  10   9
BRANCH  12  13
ATOM     13  N   UNL     1       4.150 -11.004  71.662  0.00  0.00    -0.281 N 
ATOM     14  C   UNL     1       4.483 -10.913  70.321  0.00  0.00    +0.248 C 
ATOM     30  O   UNL     1       4.882  -9.894  69.776  0.00  0.00    -0.270 OA
ATOM     31  H   UNL     1       3.650 -11.847  71.944  0.00  0.00    +0.155 HD
BRANCH  14  15
ATOM     15  C   UNL     1       4.339 -12.124  69.457  0.00  0.00    +0.037 A 
ATOM     16  C   UNL     1       3.031 -12.540  68.944  0.00  0.00    +0.013 A 
ATOM     17  C   UNL     1       2.918 -13.723  68.127  0.00  0.00    +0.005 A 
ATOM     18  C   UNL     1       4.118 -14.496  67.817  0.00  0.00    -0.033 A 
ATOM     28  C   UNL     1       5.403 -14.057  68.334  0.00  0.00    +0.005 A 
ATOM     29  C   UNL     1       5.518 -12.900  69.136  0.00  0.00    +0.013 A 
BRANCH  18  19
ATOM     19  C   UNL     1       4.087 -15.782  66.970  0.00  0.00    +0.119 C 
BRANCH  19  20
ATOM     20  N   UNL     1       2.787 -16.153  66.335  0.00  0.00    -0.302 NA
ATOM     21  C   UNL     1       2.054 -17.242  67.123  0.00  0.00    +0.066 C 
ATOM     22  C   UNL     1       0.685 -17.601  66.457  0.00  0.00    -0.064 C 
ATOM     23  N   UNL     1       0.924 -18.045  65.013  0.00  0.00    +0.379 N 
ATOM     24  C   UNL     1      -0.354 -18.439  64.403  0.00  0.00    -0.096 C 
ATOM     25  H   UNL     1       1.579 -18.947  65.041  0.00  0.00    -0.082 HD
ATOM     26  C   UNL     1       1.656 -16.969  64.224  0.00  0.00    -0.064 C 
ATOM     27  C   UNL     1       3.001 -16.598  64.909  0.00  0.00    +0.066 C 
ENDBRANCH  19  20
ENDBRANCH  18  19
ENDBRANCH  14  15
ENDBRANCH  12  13
TORSDOF 6
ENDMDL
MODEL 4
REMARK VINA RESULT:      -8.0      5.096      7.456
REMARK  Name = C:\Users\Docking\Desktop\test protocol\1iep_ligandH.pdb
REMARK  8 active torsions:
REMARK  status: ('A' for Active; 'I' for Inactive)
REMARK    1  A    between atoms: _5  and  _11
REMARK    2  A    between atoms: _19  and  _21
REMARK    3  A    between atoms: _22  and  _66
REMARK    4  A    between atoms: _27  and  _30
REMARK    5  A    between atoms: _32  and  _33
REMARK    6  A    between atoms: _38  and  _43
REMARK    7  A    between atoms: _43  and  _46
REMARK    8  A    between atoms: _53  and  _55
REMARK                            x       y       z     vdW  Elec       q    Type
REMARK                         _______ _______ _______ _____ _____    ______ ____
ROOT
ATOM     10  C   UNL     1       3.337 -16.033  71.272  0.00  0.00    +0.038 A 
ATOM     11  C   UNL     1       3.419 -14.684  71.700  0.00  0.00    +0.047 A 
ATOM     12  C   UNL     1       4.244 -14.303  72.836  0.00  0.00    +0.035 A 
ATOM     32  C   UNL     1       4.974 -15.323  73.512  0.00  0.00    +0.024 A 
ATOM     33  C   UNL     1       4.901 -16.701  73.092  0.00  0.00    +0.007 A 
ATOM     34  C   UNL     1       4.087 -17.082  71.974  0.00  0.00    -0.029 A 
ATOM     35  C   UNL     1       4.041 -18.575  71.571  0.00  0.00    +0.045 C 
ENDROOT
BRANCH  10   9
ATOM      4  C   UNL     1       2.676 -16.759  66.574  0.00  0.00    +0.077 A 
ATOM      5  C   UNL     1       4.050 -16.473  66.276  0.00  0.00    +0.048 A 
ATOM      6  C   UNL     1       4.892 -16.136  67.360  0.00  0.00    +0.116 A 
ATOM      7  N   UNL     1       4.387 -16.092  68.641  0.00  0.00    -0.223 NA
ATOM      8  C   UNL     1       3.057 -16.373  68.894  0.00  0.00    +0.220 A 
ATOM      9  N   UNL     1       2.529 -16.342  70.175  0.00  0.00    -0.283 N 
ATOM     36  H   UNL     1       1.541 -16.548  70.319  0.00  0.00    +0.155 HD
ATOM     37  N   UNL     1       2.232 -16.696  67.876  0.00  0.00    -0.214 NA
BRANCH   4   3
ATOM      1  C   UNL     1       0.624 -16.924  63.248  0.00  0.00    +0.020 A 
ATOM      2  C   UNL     1       1.622 -16.526  64.213  0.00  0.00    +0.013 A 
ATOM      3  C   UNL     1       1.663 -17.134  65.537  0.00  0.00    +0.019 A 
ATOM     38  C   UNL     1       0.672 -18.151  65.855  0.00  0.00    +0.120 A 
ATOM     39  N   UNL     1      -0.279 -18.513  64.906  0.00  0.00    -0.263 NA
ATOM     40  C   UNL     1      -0.329 -17.934  63.629  0.00  0.00    +0.111 A 
ENDBRANCH   4   3
ENDBRANCH  10   9
BRANCH  12  13
ATOM     13  N   UNL     1       4.361 -12.950  73.320  0.00  0.00    -0.281 N 
ATOM     14  C   UNL     1       5.079 -11.905  72.763  0.00  0.00    +0.248 C 
ATOM     30  O   UNL     1       5.907 -12.032  71.873  0.00  0.00    -0.270 OA
ATOM     31  H   UNL     1       3.853 -12.737  74.179  0.00  0.00    +0.155 HD
BRANCH  14  15
ATOM     15  C   UNL     1       4.855 -10.520  73.278  0.00  0.00    +0.037 A 
ATOM     16  C   UNL     1       3.846  -9.641  72.681  0.00  0.00    +0.013 A 
ATOM     17  C   UNL     1       3.662  -8.303  73.185  0.00  0.00    +0.005 A 
ATOM     18  C   UNL     1       4.489  -7.837  74.295  0.00  0.00    -0.033 A 
ATOM     28  C   UNL     1       5.479  -8.731  74.872  0.00  0.00    +0.005 A 
ATOM     29  C   UNL     1       5.663 -10.042  74.379  0.00  0.00    +0.013 A 
BRANCH  18  19
ATOM     19  C   UNL     1       4.377  -6.418  74.884  0.00  0.00    +0.119 C 
BRANCH  19  20
ATOM     20  N   UNL     1       3.608  -5.410  74.095  0.00  0.00    -0.302 NA
ATOM     21  C   UNL     1       4.503  -4.637  73.123  0.00  0.00    +0.066 C 
ATOM     22  C   UNL     1       3.678  -3.602  72.289  0.00  0.00    -0.064 C 
ATOM     23  N   UNL     1       2.958  -2.644  73.240  0.00  0.00    +0.379 N 
ATOM     24  C   UNL     1       2.229  -1.635  72.459  0.00  0.00    -0.096 C 
ATOM     25  H   UNL     1       3.735  -2.113  73.838  0.00  0.00    -0.082 HD
ATOM     26  C   UNL     1       2.068  -3.405  74.213  0.00  0.00    -0.064 C 
ATOM     27  C   UNL     1       2.892  -4.451  75.014  0.00  0.00    +0.066 C 
ENDBRANCH  19  20
ENDBRANCH  18  19
ENDBRANCH  14  15
ENDBRANCH  12  13
TORSDOF 6
ENDMDL
MODEL 5
REMARK VINA RESULT:      -7.8     38.217     42.181
REMARK  Name = C:\Users\Docking\Desktop\test protocol\1iep_ligandH.pdb
REMARK  8 active torsions:
REMARK  status: ('A' for Active; 'I' for Inactive)
REMARK    1  A    between atoms: _5  and  _11
REMARK    2  A    between atoms: _19  and  _21
REMARK    3  A    between atoms: _22  and  _66
REMARK    4  A    between atoms: _27  and  _30
REMARK    5  A    between atoms: _32  and  _33
REMARK    6  A    between atoms: _38  and  _43
REMARK    7  A    between atoms: _43  and  _46
REMARK    8  A    between atoms: _53  and  _55
REMARK                            x       y       z     vdW  Elec       q    Type
REMARK                         _______ _______ _______ _____ _____    ______ ____
ROOT
ATOM     10  C   UNL     1     -15.064 -47.507  65.800  0.00  0.00    +0.038 A 
ATOM     11  C   UNL     1     -14.707 -48.278  64.665  0.00  0.00    +0.047 A 
ATOM     12  C   UNL     1     -14.652 -47.684  63.338  0.00  0.00    +0.035 A 
ATOM     32  C   UNL     1     -14.964 -46.299  63.205  0.00  0.00    +0.024 A 
ATOM     33  C   UNL     1     -15.330 -45.501  64.349  0.00  0.00    +0.007 A 
ATOM     34  C   UNL     1     -15.388 -46.083  65.659  0.00  0.00    -0.029 A 
ATOM     35  C   UNL     1     -15.793 -45.180  66.848  0.00  0.00    +0.045 C 
ENDROOT
BRANCH  10   9
ATOM      4  C   UNL     1     -17.354 -49.915  69.264  0.00  0.00    +0.077 A 
ATOM      5  C   UNL     1     -18.589 -49.909  68.533  0.00  0.00    +0.048 A 
ATOM      6  C   UNL     1     -18.594 -49.270  67.273  0.00  0.00    +0.116 A 
ATOM      7  N   UNL     1     -17.444 -48.684  66.790  0.00  0.00    -0.223 NA
ATOM      8  C   UNL     1     -16.271 -48.706  67.521  0.00  0.00    +0.220 A 
ATOM      9  N   UNL     1     -15.101 -48.130  67.050  0.00  0.00    -0.283 N 
ATOM     36  H   UNL     1     -14.258 -48.161  67.623  0.00  0.00    +0.155 HD
ATOM     37  N   UNL     1     -16.240 -49.309  68.727  0.00  0.00    -0.214 NA
BRANCH   4   3
ATOM      1  C   UNL     1     -17.031 -52.563  72.125  0.00  0.00    +0.020 A 
ATOM      2  C   UNL     1     -17.196 -51.997  70.806  0.00  0.00    +0.013 A 
ATOM      3  C   UNL     1     -17.189 -50.553  70.608  0.00  0.00    +0.019 A 
ATOM     38  C   UNL     1     -17.011 -49.703  71.775  0.00  0.00    +0.120 A 
ATOM     39  N   UNL     1     -16.856 -50.276  73.034  0.00  0.00    -0.263 NA
ATOM     40  C   UNL     1     -16.863 -51.664  73.236  0.00  0.00    +0.111 A 
ENDBRANCH   4   3
ENDBRANCH  10   9
BRANCH  12  13
ATOM     13  N   UNL     1     -14.304 -48.418  62.148  0.00  0.00    -0.281 N 
ATOM     14  C   UNL     1     -15.070 -49.352  61.469  0.00  0.00    +0.248 C 
ATOM     30  O   UNL     1     -16.093 -49.856  61.906  0.00  0.00    -0.270 OA
ATOM     31  H   UNL     1     -13.381 -48.227  61.758  0.00  0.00    +0.155 HD
BRANCH  14  15
ATOM     15  C   UNL     1     -14.627 -49.800  60.113  0.00  0.00    +0.037 A 
ATOM     16  C   UNL     1     -14.231 -51.189  59.864  0.00  0.00    +0.013 A 
ATOM     17  C   UNL     1     -13.792 -51.591  58.551  0.00  0.00    +0.005 A 
ATOM     18  C   UNL     1     -13.749 -50.602  57.476  0.00  0.00    -0.033 A 
ATOM     28  C   UNL     1     -14.153 -49.233  57.750  0.00  0.00    +0.005 A 
ATOM     29  C   UNL     1     -14.583 -48.835  59.036  0.00  0.00    +0.013 A 
BRANCH  18  19
ATOM     19  C   UNL     1     -13.274 -50.938  56.050  0.00  0.00    +0.119 C 
BRANCH  19  20
ATOM     20  N   UNL     1     -11.857 -51.383  55.888  0.00  0.00    -0.302 NA
ATOM     21  C   UNL     1     -10.888 -50.199  55.821  0.00  0.00    +0.066 C 
ATOM     22  C   UNL     1      -9.408 -50.683  55.674  0.00  0.00    -0.064 C 
ATOM     23  N   UNL     1      -9.282 -51.558  54.426  0.00  0.00    +0.379 N 
ATOM     24  C   UNL     1      -7.881 -51.967  54.253  0.00  0.00    -0.096 C 
ATOM     25  H   UNL     1      -9.564 -50.934  53.546  0.00  0.00    -0.082 HD
ATOM     26  C   UNL     1     -10.245 -52.736  54.483  0.00  0.00    -0.064 C 
ATOM     27  C   UNL     1     -11.709 -52.245  54.659  0.00  0.00    +0.066 C 
ENDBRANCH  19  20
ENDBRANCH  18  19
ENDBRANCH  14  15
ENDBRANCH  12  13
TORSDOF 6
ENDMDL
