MODEL 1
REMARK VINA RESULT:      -7.3      0.000      0.000
REMARK  Name = C:\Users\Docking\Desktop\test protocol\1iep_ligandH.pdb
REMARK  8 active torsions:
REMARK  status: ('A' for Active; 'I' for Inactive)
REMARK    1  A    between atoms: _5  and  _11
REMARK    2  A    between atoms: _19  and  _21
REMARK    3  A    between atoms: _22  and  _66
REMARK    4  A    between atoms: _27  and  _30
REMARK    5  A    between atoms: _32  and  _33
REMARK    6  A    between atoms: _38  and  _43
REMARK    7  A    between atoms: _43  and  _46
REMARK    8  A    between atoms: _53  and  _55
REMARK                            x       y       z     vdW  Elec       q    Type
REMARK                         _______ _______ _______ _____ _____    ______ ____
ROOT
ATOM     10  C   UNL     1     138.014  15.695 148.072  0.00  0.00    +0.038 A 
ATOM     11  C   UNL     1     137.858  15.000 146.846  0.00  0.00    +0.047 A 
ATOM     12  C   UNL     1     137.536  15.706 145.616  0.00  0.00    +0.035 A 
ATOM     32  C   UNL     1     137.383  17.122 145.670  0.00  0.00    +0.024 A 
ATOM     33  C   UNL     1     137.536  17.845 146.908  0.00  0.00    +0.007 A 
ATOM     34  C   UNL     1     137.851  17.153 148.126  0.00  0.00    -0.029 A 
ATOM     35  C   UNL     1     137.998  17.978 149.425  0.00  0.00    +0.045 C 
ENDROOT
BRANCH  10   9
ATOM      4  C   UNL     1     136.860  12.619 151.572  0.00  0.00    +0.077 A 
ATOM      5  C   UNL     1     135.520  12.472 151.081  0.00  0.00    +0.048 A 
ATOM      6  C   UNL     1     135.165  13.210 149.930  0.00  0.00    +0.116 A 
ATOM      7  N   UNL     1     136.090  14.032 149.322  0.00  0.00    -0.223 NA
ATOM      8  C   UNL     1     137.374  14.152 149.822  0.00  0.00    +0.220 A 
ATOM      9  N   UNL     1     138.323  14.966 149.223  0.00  0.00    -0.283 N 
ATOM     36  H   UNL     1     139.257  15.034 149.627  0.00  0.00    +0.155 HD
ATOM     37  N   UNL     1     137.737  13.459 150.921  0.00  0.00    -0.214 NA
BRANCH   4   3
ATOM      1  C   UNL     1     137.152  10.273 154.688  0.00  0.00    +0.020 A 
ATOM      2  C   UNL     1     136.596  10.938 153.532  0.00  0.00    +0.013 A 
ATOM      3  C   UNL     1     137.386  11.902 152.776  0.00  0.00    +0.019 A 
ATOM     38  C   UNL     1     138.746  12.172 153.219  0.00  0.00    +0.120 A 
ATOM     39  N   UNL     1     139.254  11.517 154.337  0.00  0.00    -0.263 NA
ATOM     40  C   UNL     1     138.503  10.589 155.073  0.00  0.00    +0.111 A 
ENDBRANCH   4   3
ENDBRANCH  10   9
BRANCH  12  13
ATOM     13  N   UNL     1     137.358  15.052 144.343  0.00  0.00    -0.281 N 
ATOM     14  C   UNL     1     138.337  14.585 143.481  0.00  0.00    +0.248 C 
ATOM     30  O   UNL     1     139.526  14.852 143.576  0.00  0.00    -0.270 OA
ATOM     31  H   UNL     1     136.393  14.918 144.041  0.00  0.00    +0.155 HD
BRANCH  14  15
ATOM     15  C   UNL     1     137.935  13.707 142.340  0.00  0.00    +0.037 A 
ATOM     16  C   UNL     1     137.945  14.201 140.961  0.00  0.00    +0.013 A 
ATOM     17  C   UNL     1     137.537  13.338 139.881  0.00  0.00    +0.005 A 
ATOM     18  C   UNL     1     137.116  11.971 140.177  0.00  0.00    -0.033 A 
ATOM     28  C   UNL     1     137.120  11.505 141.554  0.00  0.00    +0.005 A 
ATOM     29  C   UNL     1     137.519  12.348 142.615  0.00  0.00    +0.013 A 
BRANCH  18  19
ATOM     19  C   UNL     1     136.644  10.987 139.089  0.00  0.00    +0.119 C 
BRANCH  19  20
ATOM     20  N   UNL     1     136.545  11.507 137.693  0.00  0.00    -0.302 NA
ATOM     21  C   UNL     1     135.257  11.054 137.001  0.00  0.00    +0.066 C 
ATOM     22  C   UNL     1     135.159  11.625 135.549  0.00  0.00    -0.064 C 
ATOM     23  N   UNL     1     136.387  11.189 134.748  0.00  0.00    +0.379 N 
ATOM     24  C   UNL     1     136.270  11.676 133.366  0.00  0.00    -0.096 C 
ATOM     25  H   UNL     1     136.390  10.074 134.715  0.00  0.00    -0.082 HD
ATOM     26  C   UNL     1     137.673  11.634 135.431  0.00  0.00    -0.064 C 
ATOM     27  C   UNL     1     137.746  11.084 136.883  0.00  0.00    +0.066 C 
ENDBRANCH  19  20
ENDBRANCH  18  19
ENDBRANCH  14  15
ENDBRANCH  12  13
TORSDOF 6
ENDMDL
MODEL 2
REMARK VINA RESULT:      -7.0      4.464      6.974
REMARK  Name = C:\Users\Docking\Desktop\test protocol\1iep_ligandH.pdb
REMARK  8 active torsions:
REMARK  status: ('A' for Active; 'I' for Inactive)
REMARK    1  A    between atoms: _5  and  _11
REMARK    2  A    between atoms: _19  and  _21
REMARK    3  A    between atoms: _22  and  _66
REMARK    4  A    between atoms: _27  and  _30
REMARK    5  A    between atoms: _32  and  _33
REMARK    6  A    between atoms: _38  and  _43
REMARK    7  A    between atoms: _43  and  _46
REMARK    8  A    between atoms: _53  and  _55
REMARK                            x       y       z     vdW  Elec       q    Type
REMARK                         _______ _______ _______ _____ _____    ______ ____
ROOT
ATOM     10  C   UNL     1     140.565  12.754 152.613  0.00  0.00    +0.038 A 
ATOM     11  C   UNL     1     140.036  12.813 151.299  0.00  0.00    +0.047 A 
ATOM     12  C   UNL     1     139.281  13.970 150.842  0.00  0.00    +0.035 A 
ATOM     32  C   UNL     1     139.087  15.051 151.751  0.00  0.00    +0.024 A 
ATOM     33  C   UNL     1     139.616  15.007 153.091  0.00  0.00    +0.007 A 
ATOM     34  C   UNL     1     140.360  13.868 153.548  0.00  0.00    -0.029 A 
ATOM     35  C   UNL     1     140.899  13.873 154.997  0.00  0.00    +0.045 C 
ENDROOT
BRANCH  10   9
ATOM      4  C   UNL     1     144.631  10.225 152.939  0.00  0.00    +0.077 A 
ATOM      5  C   UNL     1     145.386  11.238 152.260  0.00  0.00    +0.048 A 
ATOM      6  C   UNL     1     144.689  12.392 151.836  0.00  0.00    +0.116 A 
ATOM      7  N   UNL     1     143.338  12.513 152.080  0.00  0.00    -0.223 NA
ATOM      8  C   UNL     1     142.639  11.516 152.736  0.00  0.00    +0.220 A 
ATOM      9  N   UNL     1     141.282  11.619 152.999  0.00  0.00    -0.283 N 
ATOM     36  H   UNL     1     140.802  10.859 153.479  0.00  0.00    +0.155 HD
ATOM     37  N   UNL     1     143.282  10.403 153.149  0.00  0.00    -0.214 NA
BRANCH   4   3
ATOM      1  C   UNL     1     147.183   7.435 153.943  0.00  0.00    +0.020 A 
ATOM      2  C   UNL     1     146.659   8.683 153.437  0.00  0.00    +0.013 A 
ATOM      3  C   UNL     1     145.227   8.950 153.450  0.00  0.00    +0.019 A 
ATOM     38  C   UNL     1     144.344   7.924 153.986  0.00  0.00    +0.120 A 
ATOM     39  N   UNL     1     144.877   6.732 154.465  0.00  0.00    -0.263 NA
ATOM     40  C   UNL     1     146.254   6.464 154.456  0.00  0.00    +0.111 A 
ENDBRANCH   4   3
ENDBRANCH  10   9
BRANCH  12  13
ATOM     13  N   UNL     1     138.713  14.082 149.522  0.00  0.00    -0.281 N 
ATOM     14  C   UNL     1     137.633  13.392 148.998  0.00  0.00    +0.248 C 
ATOM     30  O   UNL     1     137.121  12.412 149.518  0.00  0.00    -0.270 OA
ATOM     31  H   UNL     1     139.162  14.753 148.898  0.00  0.00    +0.155 HD
BRANCH  14  15
ATOM     15  C   UNL     1     137.046  13.846 147.701  0.00  0.00    +0.037 A 
ATOM     16  C   UNL     1     137.778  14.751 146.811  0.00  0.00    +0.013 A 
ATOM     17  C   UNL     1     137.181  15.188 145.573  0.00  0.00    +0.005 A 
ATOM     18  C   UNL     1     135.844  14.718 145.218  0.00  0.00    -0.033 A 
ATOM     28  C   UNL     1     135.143  13.816 146.117  0.00  0.00    +0.005 A 
ATOM     29  C   UNL     1     135.724  13.387 147.331  0.00  0.00    +0.013 A 
BRANCH  18  19
ATOM     19  C   UNL     1     135.122  15.149 143.928  0.00  0.00    +0.119 C 
BRANCH  19  20
ATOM     20  N   UNL     1     135.766  14.788 142.630  0.00  0.00    -0.302 NA
ATOM     21  C   UNL     1     134.895  15.170 141.430  0.00  0.00    +0.066 C 
ATOM     22  C   UNL     1     135.594  14.806 140.080  0.00  0.00    -0.064 C 
ATOM     23  N   UNL     1     135.915  13.311 140.062  0.00  0.00    +0.379 N 
ATOM     24  C   UNL     1     136.520  12.955 138.770  0.00  0.00    -0.096 C 
ATOM     25  H   UNL     1     134.951  12.758 140.148  0.00  0.00    -0.082 HD
ATOM     26  C   UNL     1     136.779  12.922 141.253  0.00  0.00    -0.064 C 
ATOM     27  C   UNL     1     136.088  13.315 142.589  0.00  0.00    +0.066 C 
ENDBRANCH  19  20
ENDBRANCH  18  19
ENDBRANCH  14  15
ENDBRANCH  12  13
TORSDOF 6
ENDMDL
MODEL 3
REMARK VINA RESULT:      -6.8      4.417     12.928
REMARK  Name = C:\Users\Docking\Desktop\test protocol\1iep_ligandH.pdb
REMARK  8 active torsions:
REMARK  status: ('A' for Active; 'I' for Inactive)
REMARK    1  A    between atoms: _5  and  _11
REMARK    2  A    between atoms: _19  and  _21
REMARK    3  A    between atoms: _22  and  _66
REMARK    4  A    between atoms: _27  and  _30
REMARK    5  A    between atoms: _32  and  _33
REMARK    6  A    between atoms: _38  and  _43
REMARK    7  A    between atoms: _43  and  _46
REMARK    8  A    between atoms: _53  and  _55
REMARK                            x       y       z     vdW  Elec       q    Type
REMARK                         _______ _______ _______ _____ _____    ______ ____
ROOT
ATOM     10  C   UNL     1     137.252  13.994 144.507  0.00  0.00    +0.038 A 
ATOM     11  C   UNL     1     137.168  13.501 145.834  0.00  0.00    +0.047 A 
ATOM     12  C   UNL     1     135.887  13.378 146.512  0.00  0.00    +0.035 A 
ATOM     32  C   UNL     1     134.710  13.763 145.807  0.00  0.00    +0.024 A 
ATOM     33  C   UNL     1     134.776  14.267 144.458  0.00  0.00    +0.007 A 
ATOM     34  C   UNL     1     136.038  14.394 143.785  0.00  0.00    -0.029 A 
ATOM     35  C   UNL     1     136.050  14.946 142.341  0.00  0.00    +0.045 C 
ENDROOT
BRANCH  10   9
ATOM      4  C   UNL     1     141.261  16.410 143.447  0.00  0.00    +0.077 A 
ATOM      5  C   UNL     1     140.804  17.586 144.128  0.00  0.00    +0.048 A 
ATOM      6  C   UNL     1     139.528  17.530 144.733  0.00  0.00    +0.116 A 
ATOM      7  N   UNL     1     138.774  16.379 144.655  0.00  0.00    -0.223 NA
ATOM      8  C   UNL     1     139.245  15.263 143.988  0.00  0.00    +0.220 A 
ATOM      9  N   UNL     1     138.508  14.092 143.904  0.00  0.00    -0.283 N 
ATOM     36  H   UNL     1     138.887  13.293 143.397  0.00  0.00    +0.155 HD
ATOM     37  N   UNL     1     140.460  15.291 143.402  0.00  0.00    -0.214 NA
BRANCH   4   3
ATOM      1  C   UNL     1     144.111  16.643 140.777  0.00  0.00    +0.020 A 
ATOM      2  C   UNL     1     142.809  16.759 141.392  0.00  0.00    +0.013 A 
ATOM      3  C   UNL     1     142.589  16.312 142.761  0.00  0.00    +0.019 A 
ATOM     38  C   UNL     1     143.717  15.747 143.487  0.00  0.00    +0.120 A 
ATOM     39  N   UNL     1     144.959  15.645 142.868  0.00  0.00    -0.263 NA
ATOM     40  C   UNL     1     145.182  16.072 141.550  0.00  0.00    +0.111 A 
ENDBRANCH   4   3
ENDBRANCH  10   9
BRANCH  12  13
ATOM     13  N   UNL     1     135.742  12.892 147.862  0.00  0.00    -0.281 N 
ATOM     14  C   UNL     1     136.347  13.374 149.011  0.00  0.00    +0.248 C 
ATOM     30  O   UNL     1     137.276  14.168 149.022  0.00  0.00    -0.270 OA
ATOM     31  H   UNL     1     135.117  12.095 147.985  0.00  0.00    +0.155 HD
BRANCH  14  15
ATOM     15  C   UNL     1     135.858  12.895 150.340  0.00  0.00    +0.037 A 
ATOM     16  C   UNL     1     136.659  13.075 151.554  0.00  0.00    +0.013 A 
ATOM     17  C   UNL     1     136.172  12.588 152.820  0.00  0.00    +0.005 A 
ATOM     18  C   UNL     1     134.876  11.918 152.879  0.00  0.00    -0.033 A 
ATOM     28  C   UNL     1     134.100  11.758 151.660  0.00  0.00    +0.005 A 
ATOM     29  C   UNL     1     134.574  12.232 150.417  0.00  0.00    +0.013 A 
BRANCH  18  19
ATOM     19  C   UNL     1     134.287  11.348 154.183  0.00  0.00    +0.119 C 
BRANCH  19  20
ATOM     20  N   UNL     1     134.799  11.912 155.468  0.00  0.00    -0.302 NA
ATOM     21  C   UNL     1     135.786  10.967 156.157  0.00  0.00    +0.066 C 
ATOM     22  C   UNL     1     136.329  11.582 157.488  0.00  0.00    -0.064 C 
ATOM     23  N   UNL     1     135.154  11.907 158.413  0.00  0.00    +0.379 N 
ATOM     24  C   UNL     1     135.664  12.432 159.688  0.00  0.00    -0.096 C 
ATOM     25  H   UNL     1     134.620  10.952 158.629  0.00  0.00    -0.082 HD
ATOM     26  C   UNL     1     134.166  12.844 157.734  0.00  0.00    -0.064 C 
ATOM     27  C   UNL     1     133.655  12.236 156.398  0.00  0.00    +0.066 C 
ENDBRANCH  19  20
ENDBRANCH  18  19
ENDBRANCH  14  15
ENDBRANCH  12  13
TORSDOF 6
ENDMDL
MODEL 4
REMARK VINA RESULT:      -6.8     22.494     24.871
REMARK  Name = C:\Users\Docking\Desktop\test protocol\1iep_ligandH.pdb
REMARK  8 active torsions:
REMARK  status: ('A' for Active; 'I' for Inactive)
REMARK    1  A    between atoms: _5  and  _11
REMARK    2  A    between atoms: _19  and  _21
REMARK    3  A    between atoms: _22  and  _66
REMARK    4  A    between atoms: _27  and  _30
REMARK    5  A    between atoms: _32  and  _33
REMARK    6  A    between atoms: _38  and  _43
REMARK    7  A    between atoms: _43  and  _46
REMARK    8  A    between atoms: _53  and  _55
REMARK                            x       y       z     vdW  Elec       q    Type
REMARK                         _______ _______ _______ _____ _____    ______ ____
ROOT
ATOM     10  C   UNL     1     149.492  -8.253 154.059  0.00  0.00    +0.038 A 
ATOM     11  C   UNL     1     148.229  -8.120 153.428  0.00  0.00    +0.047 A 
ATOM     12  C   UNL     1     147.273  -9.217 153.420  0.00  0.00    +0.035 A 
ATOM     32  C   UNL     1     147.635 -10.434 154.068  0.00  0.00    +0.024 A 
ATOM     33  C   UNL     1     148.916 -10.586 154.713  0.00  0.00    +0.007 A 
ATOM     34  C   UNL     1     149.864  -9.509 154.722  0.00  0.00    -0.029 A 
ATOM     35  C   UNL     1     151.224  -9.730 155.423  0.00  0.00    +0.045 C 
ENDROOT
BRANCH  10   9
ATOM      4  C   UNL     1     150.714  -3.769 155.257  0.00  0.00    +0.077 A 
ATOM      5  C   UNL     1     149.485  -3.560 155.967  0.00  0.00    +0.048 A 
ATOM      6  C   UNL     1     148.562  -4.630 155.994  0.00  0.00    +0.116 A 
ATOM      7  N   UNL     1     148.857  -5.815 155.355  0.00  0.00    -0.223 NA
ATOM      8  C   UNL     1     150.051  -5.982 154.678  0.00  0.00    +0.220 A 
ATOM      9  N   UNL     1     150.371  -7.168 154.036  0.00  0.00    -0.283 N 
ATOM     36  H   UNL     1     151.259  -7.249 153.541  0.00  0.00    +0.155 HD
ATOM     37  N   UNL     1     150.948  -4.976 154.637  0.00  0.00    -0.214 NA
BRANCH   4   3
ATOM      1  C   UNL     1     152.723  -0.424 155.533  0.00  0.00    +0.020 A 
ATOM      2  C   UNL     1     151.653  -1.384 155.671  0.00  0.00    +0.013 A 
ATOM      3  C   UNL     1     151.791  -2.735 155.142  0.00  0.00    +0.019 A 
ATOM     38  C   UNL     1     153.036  -3.085 154.474  0.00  0.00    +0.120 A 
ATOM     39  N   UNL     1     154.049  -2.139 154.355  0.00  0.00    -0.263 NA
ATOM     40  C   UNL     1     153.926  -0.835 154.859  0.00  0.00    +0.111 A 
ENDBRANCH   4   3
ENDBRANCH  10   9
BRANCH  12  13
ATOM     13  N   UNL     1     145.979  -9.143 152.789  0.00  0.00    -0.281 N 
ATOM     14  C   UNL     1     144.775  -8.759 153.356  0.00  0.00    +0.248 C 
ATOM     30  O   UNL     1     144.588  -8.624 154.557  0.00  0.00    -0.270 OA
ATOM     31  H   UNL     1     145.946  -9.407 151.804  0.00  0.00    +0.155 HD
BRANCH  14  15
ATOM     15  C   UNL     1     143.605  -8.502 152.463  0.00  0.00    +0.037 A 
ATOM     16  C   UNL     1     143.337  -7.165 151.926  0.00  0.00    +0.013 A 
ATOM     17  C   UNL     1     142.192  -6.941 151.080  0.00  0.00    +0.005 A 
ATOM     18  C   UNL     1     141.306  -8.059 150.764  0.00  0.00    -0.033 A 
ATOM     28  C   UNL     1     141.597  -9.376 151.305  0.00  0.00    +0.005 A 
ATOM     29  C   UNL     1     142.718  -9.599 152.136  0.00  0.00    +0.013 A 
BRANCH  18  19
ATOM     19  C   UNL     1     140.049  -7.907 149.887  0.00  0.00    +0.119 C 
BRANCH  19  20
ATOM     20  N   UNL     1     138.734  -7.803 150.588  0.00  0.00    -0.302 NA
ATOM     21  C   UNL     1     138.884  -7.263 152.013  0.00  0.00    +0.066 C 
ATOM     22  C   UNL     1     137.497  -7.139 152.723  0.00  0.00    -0.064 C 
ATOM     23  N   UNL     1     136.807  -8.504 152.731  0.00  0.00    +0.379 N 
ATOM     24  C   UNL     1     135.529  -8.404 153.450  0.00  0.00    -0.096 C 
ATOM     25  H   UNL     1     137.460  -9.209 153.298  0.00  0.00    -0.082 HD
ATOM     26  C   UNL     1     136.657  -9.050 151.318  0.00  0.00    -0.064 C 
ATOM     27  C   UNL     1     138.038  -9.141 150.611  0.00  0.00    +0.066 C 
ENDBRANCH  19  20
ENDBRANCH  18  19
ENDBRANCH  14  15
ENDBRANCH  12  13
TORSDOF 6
ENDMDL
MODEL 5
REMARK VINA RESULT:      -6.7      9.018     11.195
REMARK  Name = C:\Users\Docking\Desktop\test protocol\1iep_ligandH.pdb
REMARK  8 active torsions:
REMARK  status: ('A' for Active; 'I' for Inactive)
REMARK    1  A    between atoms: _5  and  _11
REMARK    2  A    between atoms: _19  and  _21
REMARK    3  A    between atoms: _22  and  _66
REMARK    4  A    between atoms: _27  and  _30
REMARK    5  A    between atoms: _32  and  _33
REMARK    6  A    between atoms: _38  and  _43
REMARK    7  A    between atoms: _43  and  _46
REMARK    8  A    between atoms: _53  and  _55
REMARK                            x       y       z     vdW  Elec       q    Type
REMARK                         _______ _______ _______ _____ _____    ______ ____
ROOT
ATOM     10  C   UNL     1     142.134  16.761 142.932  0.00  0.00    +0.038 A 
ATOM     11  C   UNL     1     143.252  15.936 143.215  0.00  0.00    +0.047 A 
ATOM     12  C   UNL     1     144.261  15.664 142.203  0.00  0.00    +0.035 A 
ATOM     32  C   UNL     1     144.101  16.250 140.914  0.00  0.00    +0.024 A 
ATOM     33  C   UNL     1     142.970  17.090 140.609  0.00  0.00    +0.007 A 
ATOM     34  C   UNL     1     141.970  17.360 141.602  0.00  0.00    -0.029 A 
ATOM     35  C   UNL     1     140.775  18.263 141.216  0.00  0.00    +0.045 C 
ENDROOT
BRANCH  10   9
ATOM      4  C   UNL     1     138.042  15.728 145.218  0.00  0.00    +0.077 A 
ATOM      5  C   UNL     1     137.735  14.661 144.310  0.00  0.00    +0.048 A 
ATOM      6  C   UNL     1     138.652  14.415 143.264  0.00  0.00    +0.116 A 
ATOM      7  N   UNL     1     139.789  15.185 143.145  0.00  0.00    -0.223 NA
ATOM      8  C   UNL     1     140.054  16.208 144.036  0.00  0.00    +0.220 A 
ATOM      9  N   UNL     1     141.195  16.989 143.940  0.00  0.00    -0.283 N 
ATOM     36  H   UNL     1     141.350  17.739 144.613  0.00  0.00    +0.155 HD
ATOM     37  N   UNL     1     139.193  16.464 145.043  0.00  0.00    -0.214 NA
BRANCH   4   3
ATOM      1  C   UNL     1     134.957  16.772 147.385  0.00  0.00    +0.020 A 
ATOM      2  C   UNL     1     135.753  16.411 146.235  0.00  0.00    +0.013 A 
ATOM      3  C   UNL     1     137.172  16.109 146.375  0.00  0.00    +0.019 A 
ATOM     38  C   UNL     1     137.760  16.182 147.705  0.00  0.00    +0.120 A 
ATOM     39  N   UNL     1     136.969  16.534 148.794  0.00  0.00    -0.263 NA
ATOM     40  C   UNL     1     135.603  16.829 148.670  0.00  0.00    +0.111 A 
ENDBRANCH   4   3
ENDBRANCH  10   9
BRANCH  12  13
ATOM     13  N   UNL     1     145.414  14.828 142.431  0.00  0.00    -0.281 N 
ATOM     14  C   UNL     1     146.681  15.216 142.835  0.00  0.00    +0.248 C 
ATOM     30  O   UNL     1     147.075  16.372 142.858  0.00  0.00    -0.270 OA
ATOM     31  H   UNL     1     145.280  13.829 142.274  0.00  0.00    +0.155 HD
BRANCH  14  15
ATOM     15  C   UNL     1     147.655  14.166 143.264  0.00  0.00    +0.037 A 
ATOM     16  C   UNL     1     147.317  13.196 144.308  0.00  0.00    +0.013 A 
ATOM     17  C   UNL     1     148.281  12.205 144.715  0.00  0.00    +0.005 A 
ATOM     18  C   UNL     1     149.594  12.178 144.074  0.00  0.00    -0.033 A 
ATOM     28  C   UNL     1     149.901  13.149 143.036  0.00  0.00    +0.005 A 
ATOM     29  C   UNL     1     148.959  14.122 142.636  0.00  0.00    +0.013 A 
BRANCH  18  19
ATOM     19  C   UNL     1     150.692  11.169 144.459  0.00  0.00    +0.119 C 
BRANCH  19  20
ATOM     20  N   UNL     1     151.486  10.566 143.347  0.00  0.00    -0.302 NA
ATOM     21  C   UNL     1     150.969   9.178 142.959  0.00  0.00    +0.066 C 
ATOM     22  C   UNL     1     151.797   8.571 141.780  0.00  0.00    -0.064 C 
ATOM     23  N   UNL     1     153.273   8.507 142.176  0.00  0.00    +0.379 N 
ATOM     24  C   UNL     1     154.046   7.884 141.092  0.00  0.00    -0.096 C 
ATOM     25  H   UNL     1     153.354   7.848 143.072  0.00  0.00    -0.082 HD
ATOM     26  C   UNL     1     153.795   9.883 142.567  0.00  0.00    -0.064 C 
ATOM     27  C   UNL     1     152.947  10.489 143.719  0.00  0.00    +0.066 C 
ENDBRANCH  19  20
ENDBRANCH  18  19
ENDBRANCH  14  15
ENDBRANCH  12  13
TORSDOF 6
ENDMDL
