MODEL 1
REMARK VINA RESULT:      -9.2      0.000      0.000
REMARK  Name = C:\Users\Docking\Desktop\test protocol\1iep_ligandH.pdb
REMARK  8 active torsions:
REMARK  status: ('A' for Active; 'I' for Inactive)
REMARK    1  A    between atoms: _5  and  _11
REMARK    2  A    between atoms: _19  and  _21
REMARK    3  A    between atoms: _22  and  _66
REMARK    4  A    between atoms: _27  and  _30
REMARK    5  A    between atoms: _32  and  _33
REMARK    6  A    between atoms: _38  and  _43
REMARK    7  A    between atoms: _43  and  _46
REMARK    8  A    between atoms: _53  and  _55
REMARK                            x       y       z     vdW  Elec       q    Type
REMARK                         _______ _______ _______ _____ _____    ______ ____
ROOT
ATOM     10  C   UNL     1      -4.061  -1.257  -1.242  0.00  0.00    +0.038 A 
ATOM     11  C   UNL     1      -3.269  -0.733  -2.295  0.00  0.00    +0.047 A 
ATOM     12  C   UNL     1      -2.373  -1.587  -3.060  0.00  0.00    +0.035 A 
ATOM     32  C   UNL     1      -2.311  -2.971  -2.725  0.00  0.00    +0.024 A 
ATOM     33  C   UNL     1      -3.107  -3.520  -1.656  0.00  0.00    +0.007 A 
ATOM     34  C   UNL     1      -3.991  -2.682  -0.897  0.00  0.00    -0.029 A 
ATOM     35  C   UNL     1      -4.817  -3.323   0.242  0.00  0.00    +0.045 C 
ENDROOT
BRANCH  10   9
ATOM      4  C   UNL     1      -4.819   2.554   1.576  0.00  0.00    +0.077 A 
ATOM      5  C   UNL     1      -3.415   2.829   1.683  0.00  0.00    +0.048 A 
ATOM      6  C   UNL     1      -2.531   1.961   1.003  0.00  0.00    +0.116 A 
ATOM      7  N   UNL     1      -3.025   0.901   0.274  0.00  0.00    -0.223 NA
ATOM      8  C   UNL     1      -4.385   0.664   0.193  0.00  0.00    +0.220 A 
ATOM      9  N   UNL     1      -4.904  -0.391  -0.541  0.00  0.00    -0.283 N 
ATOM     36  H   UNL     1      -5.913  -0.537  -0.570  0.00  0.00    +0.155 HD
ATOM     37  N   UNL     1      -5.250   1.477   0.834  0.00  0.00    -0.214 NA
BRANCH   4   3
ATOM      1  C   UNL     1      -7.244   5.491   2.471  0.00  0.00    +0.020 A 
ATOM      2  C   UNL     1      -6.211   4.734   1.801  0.00  0.00    +0.013 A 
ATOM      3  C   UNL     1      -5.879   3.382   2.234  0.00  0.00    +0.019 A 
ATOM     38  C   UNL     1      -6.617   2.821   3.356  0.00  0.00    +0.120 A 
ATOM     39  N   UNL     1      -7.605   3.574   3.982  0.00  0.00    -0.263 NA
ATOM     40  C   UNL     1      -7.932   4.876   3.575  0.00  0.00    +0.111 A 
ENDBRANCH   4   3
ENDBRANCH  10   9
BRANCH  12  13
ATOM     13  N   UNL     1      -1.540  -1.110  -4.135  0.00  0.00    -0.281 N 
ATOM     14  C   UNL     1      -0.174  -0.877  -4.115  0.00  0.00    +0.248 C 
ATOM     30  O   UNL     1       0.506  -0.841  -3.100  0.00  0.00    -0.270 OA
ATOM     31  H   UNL     1      -2.014  -0.921  -5.018  0.00  0.00    +0.155 HD
BRANCH  14  15
ATOM     15  C   UNL     1       0.536  -0.636  -5.408  0.00  0.00    +0.037 A 
ATOM     16  C   UNL     1       1.981  -0.843  -5.531  0.00  0.00    +0.013 A 
ATOM     17  C   UNL     1       2.644  -0.587  -6.785  0.00  0.00    +0.005 A 
ATOM     18  C   UNL     1       1.861  -0.120  -7.927  0.00  0.00    -0.033 A 
ATOM     28  C   UNL     1       0.428   0.072  -7.778  0.00  0.00    +0.005 A 
ATOM     29  C   UNL     1      -0.225  -0.177  -6.550  0.00  0.00    +0.013 A 
BRANCH  18  19
ATOM     19  C   UNL     1       2.489   0.199  -9.297  0.00  0.00    +0.119 C 
BRANCH  19  20
ATOM     20  N   UNL     1       2.711   1.638  -9.628  0.00  0.00    -0.302 NA
ATOM     21  C   UNL     1       2.815   1.870 -11.138  0.00  0.00    +0.066 C 
ATOM     22  C   UNL     1       3.025   3.384 -11.468  0.00  0.00    -0.064 C 
ATOM     23  N   UNL     1       4.281   3.889 -10.755  0.00  0.00    +0.379 N 
ATOM     24  C   UNL     1       4.513   5.297 -11.109  0.00  0.00    -0.096 C 
ATOM     25  H   UNL     1       5.146   3.297 -11.134  0.00  0.00    -0.082 HD
ATOM     26  C   UNL     1       4.187   3.659  -9.253  0.00  0.00    -0.064 C 
ATOM     27  C   UNL     1       3.949   2.156  -8.938  0.00  0.00    +0.066 C 
ENDBRANCH  19  20
ENDBRANCH  18  19
ENDBRANCH  14  15
ENDBRANCH  12  13
TORSDOF 6
ENDMDL
MODEL 2
REMARK VINA RESULT:      -8.5     16.279     18.463
REMARK  Name = C:\Users\Docking\Desktop\test protocol\1iep_ligandH.pdb
REMARK  8 active torsions:
REMARK  status: ('A' for Active; 'I' for Inactive)
REMARK    1  A    between atoms: _5  and  _11
REMARK    2  A    between atoms: _19  and  _21
REMARK    3  A    between atoms: _22  and  _66
REMARK    4  A    between atoms: _27  and  _30
REMARK    5  A    between atoms: _32  and  _33
REMARK    6  A    between atoms: _38  and  _43
REMARK    7  A    between atoms: _43  and  _46
REMARK    8  A    between atoms: _53  and  _55
REMARK                            x       y       z     vdW  Elec       q    Type
REMARK                         _______ _______ _______ _____ _____    ______ ____
ROOT
ATOM     10  C   UNL     1       6.555  17.705   3.655  0.00  0.00    +0.038 A 
ATOM     11  C   UNL     1       6.720  16.542   2.860  0.00  0.00    +0.047 A 
ATOM     12  C   UNL     1       5.913  16.323   1.670  0.00  0.00    +0.035 A 
ATOM     32  C   UNL     1       4.948  17.311   1.317  0.00  0.00    +0.024 A 
ATOM     33  C   UNL     1       4.766  18.499   2.114  0.00  0.00    +0.007 A 
ATOM     34  C   UNL     1       5.558  18.719   3.290  0.00  0.00    -0.029 A 
ATOM     35  C   UNL     1       5.316  20.007   4.111  0.00  0.00    +0.045 C 
ENDROOT
BRANCH  10   9
ATOM      4  C   UNL     1       7.491  17.010   8.311  0.00  0.00    +0.077 A 
ATOM      5  C   UNL     1       6.266  16.292   8.511  0.00  0.00    +0.048 A 
ATOM      6  C   UNL     1       5.419  16.129   7.392  0.00  0.00    +0.116 A 
ATOM      7  N   UNL     1       5.781  16.650   6.168  0.00  0.00    -0.223 NA
ATOM      8  C   UNL     1       6.970  17.339   6.010  0.00  0.00    +0.220 A 
ATOM      9  N   UNL     1       7.358  17.864   4.787  0.00  0.00    -0.283 N 
ATOM     36  H   UNL     1       8.239  18.372   4.713  0.00  0.00    +0.155 HD
ATOM     37  N   UNL     1       7.795  17.509   7.064  0.00  0.00    -0.214 NA
BRANCH   4   3
ATOM      1  C   UNL     1      10.740  18.052  10.225  0.00  0.00    +0.020 A 
ATOM      2  C   UNL     1       9.810  17.829   9.141  0.00  0.00    +0.013 A 
ATOM      3  C   UNL     1       8.492  17.261   9.396  0.00  0.00    +0.019 A 
ATOM     38  C   UNL     1       8.143  16.928  10.768  0.00  0.00    +0.120 A 
ATOM     39  N   UNL     1       9.059  17.153  11.791  0.00  0.00    -0.263 NA
ATOM     40  C   UNL     1      10.331  17.697  11.558  0.00  0.00    +0.111 A 
ENDBRANCH   4   3
ENDBRANCH  10   9
BRANCH  12  13
ATOM     13  N   UNL     1       6.030  15.158   0.829  0.00  0.00    -0.281 N 
ATOM     14  C   UNL     1       7.022  14.870  -0.094  0.00  0.00    +0.248 C 
ATOM     30  O   UNL     1       7.850  15.675  -0.492  0.00  0.00    -0.270 OA
ATOM     31  H   UNL     1       5.291  14.460   0.926  0.00  0.00    +0.155 HD
BRANCH  14  15
ATOM     15  C   UNL     1       7.095  13.492  -0.669  0.00  0.00    +0.037 A 
ATOM     16  C   UNL     1       6.349  13.131  -1.876  0.00  0.00    +0.013 A 
ATOM     17  C   UNL     1       6.424  11.791  -2.400  0.00  0.00    +0.005 A 
ATOM     18  C   UNL     1       7.251  10.800  -1.716  0.00  0.00    -0.033 A 
ATOM     28  C   UNL     1       7.986  11.186  -0.523  0.00  0.00    +0.005 A 
ATOM     29  C   UNL     1       7.914  12.499  -0.006  0.00  0.00    +0.013 A 
BRANCH  18  19
ATOM     19  C   UNL     1       7.374   9.340  -2.192  0.00  0.00    +0.119 C 
BRANCH  19  20
ATOM     20  N   UNL     1       6.108   8.618  -2.516  0.00  0.00    -0.302 NA
ATOM     21  C   UNL     1       5.122   8.633  -1.344  0.00  0.00    +0.066 C 
ATOM     22  C   UNL     1       3.794   7.892  -1.708  0.00  0.00    -0.064 C 
ATOM     23  N   UNL     1       4.113   6.457  -2.130  0.00  0.00    +0.379 N 
ATOM     24  C   UNL     1       2.861   5.741  -2.417  0.00  0.00    -0.096 C 
ATOM     25  H   UNL     1       4.602   5.951  -1.265  0.00  0.00    -0.082 HD
ATOM     26  C   UNL     1       5.094   6.433  -3.293  0.00  0.00    -0.064 C 
ATOM     27  C   UNL     1       6.399   7.197  -2.931  0.00  0.00    +0.066 C 
ENDBRANCH  19  20
ENDBRANCH  18  19
ENDBRANCH  14  15
ENDBRANCH  12  13
TORSDOF 6
ENDMDL
MODEL 3
REMARK VINA RESULT:      -8.5      1.742      2.704
REMARK  Name = C:\Users\Docking\Desktop\test protocol\1iep_ligandH.pdb
REMARK  8 active torsions:
REMARK  status: ('A' for Active; 'I' for Inactive)
REMARK    1  A    between atoms: _5  and  _11
REMARK    2  A    between atoms: _19  and  _21
REMARK    3  A    between atoms: _22  and  _66
REMARK    4  A    between atoms: _27  and  _30
REMARK    5  A    between atoms: _32  and  _33
REMARK    6  A    between atoms: _38  and  _43
REMARK    7  A    between atoms: _43  and  _46
REMARK    8  A    between atoms: _53  and  _55
REMARK                            x       y       z     vdW  Elec       q    Type
REMARK                         _______ _______ _______ _____ _____    ______ ____
ROOT
ATOM     10  C   UNL     1      -4.065  -1.288  -1.232  0.00  0.00    +0.038 A 
ATOM     11  C   UNL     1      -3.257  -0.740  -2.262  0.00  0.00    +0.047 A 
ATOM     12  C   UNL     1      -2.360  -1.578  -3.041  0.00  0.00    +0.035 A 
ATOM     32  C   UNL     1      -2.312  -2.972  -2.747  0.00  0.00    +0.024 A 
ATOM     33  C   UNL     1      -3.125  -3.546  -1.704  0.00  0.00    +0.007 A 
ATOM     34  C   UNL     1      -4.010  -2.723  -0.930  0.00  0.00    -0.029 A 
ATOM     35  C   UNL     1      -4.853  -3.391   0.181  0.00  0.00    +0.045 C 
ENDROOT
BRANCH  10   9
ATOM      4  C   UNL     1      -4.839   2.553   1.540  0.00  0.00    +0.077 A 
ATOM      5  C   UNL     1      -3.442   2.875   1.586  0.00  0.00    +0.048 A 
ATOM      6  C   UNL     1      -2.556   2.023   0.889  0.00  0.00    +0.116 A 
ATOM      7  N   UNL     1      -3.043   0.933   0.200  0.00  0.00    -0.223 NA
ATOM      8  C   UNL     1      -4.396   0.650   0.178  0.00  0.00    +0.220 A 
ATOM      9  N   UNL     1      -4.908  -0.436  -0.515  0.00  0.00    -0.283 N 
ATOM     36  H   UNL     1      -5.912  -0.616  -0.501  0.00  0.00    +0.155 HD
ATOM     37  N   UNL     1      -5.262   1.447   0.837  0.00  0.00    -0.214 NA
BRANCH   4   3
ATOM      1  C   UNL     1      -7.203   5.488   2.589  0.00  0.00    +0.020 A 
ATOM      2  C   UNL     1      -6.167   4.754   1.899  0.00  0.00    +0.013 A 
ATOM      3  C   UNL     1      -5.900   3.359   2.224  0.00  0.00    +0.019 A 
ATOM     38  C   UNL     1      -6.706   2.730   3.259  0.00  0.00    +0.120 A 
ATOM     39  N   UNL     1      -7.696   3.462   3.908  0.00  0.00    -0.263 NA
ATOM     40  C   UNL     1      -7.961   4.806   3.605  0.00  0.00    +0.111 A 
ENDBRANCH   4   3
ENDBRANCH  10   9
BRANCH  12  13
ATOM     13  N   UNL     1      -1.511  -1.077  -4.093  0.00  0.00    -0.281 N 
ATOM     14  C   UNL     1      -0.142  -0.869  -4.056  0.00  0.00    +0.248 C 
ATOM     30  O   UNL     1       0.531  -0.881  -3.036  0.00  0.00    -0.270 OA
ATOM     31  H   UNL     1      -1.975  -0.848  -4.972  0.00  0.00    +0.155 HD
BRANCH  14  15
ATOM     15  C   UNL     1       0.581  -0.593  -5.335  0.00  0.00    +0.037 A 
ATOM     16  C   UNL     1      -0.131  -0.118  -6.524  0.00  0.00    +0.013 A 
ATOM     17  C   UNL     1       0.588   0.124  -7.749  0.00  0.00    +0.005 A 
ATOM     18  C   UNL     1       2.030  -0.107  -7.791  0.00  0.00    -0.033 A 
ATOM     28  C   UNL     1       2.713  -0.572  -6.595  0.00  0.00    +0.005 A 
ATOM     29  C   UNL     1       2.011  -0.812  -5.392  0.00  0.00    +0.013 A 
BRANCH  18  19
ATOM     19  C   UNL     1       2.875   0.105  -9.061  0.00  0.00    +0.119 C 
BRANCH  19  20
ATOM     20  N   UNL     1       3.016  -1.056  -9.990  0.00  0.00    -0.302 NA
ATOM     21  C   UNL     1       4.390  -1.088 -10.665  0.00  0.00    +0.066 C 
ATOM     22  C   UNL     1       4.529  -2.321 -11.616  0.00  0.00    -0.064 C 
ATOM     23  N   UNL     1       3.413  -2.283 -12.661  0.00  0.00    +0.379 N 
ATOM     24  C   UNL     1       3.574  -3.409 -13.592  0.00  0.00    -0.096 C 
ATOM     25  H   UNL     1       3.529  -1.341 -13.246  0.00  0.00    -0.082 HD
ATOM     26  C   UNL     1       2.043  -2.248 -11.999  0.00  0.00    -0.064 C 
ATOM     27  C   UNL     1       1.926  -1.035 -11.033  0.00  0.00    +0.066 C 
ENDBRANCH  19  20
ENDBRANCH  18  19
ENDBRANCH  14  15
ENDBRANCH  12  13
TORSDOF 6
ENDMDL
MODEL 4
REMARK VINA RESULT:      -8.3      1.542      2.376
REMARK  Name = C:\Users\Docking\Desktop\test protocol\1iep_ligandH.pdb
REMARK  8 active torsions:
REMARK  status: ('A' for Active; 'I' for Inactive)
REMARK    1  A    between atoms: _5  and  _11
REMARK    2  A    between atoms: _19  and  _21
REMARK    3  A    between atoms: _22  and  _66
REMARK    4  A    between atoms: _27  and  _30
REMARK    5  A    between atoms: _32  and  _33
REMARK    6  A    between atoms: _38  and  _43
REMARK    7  A    between atoms: _43  and  _46
REMARK    8  A    between atoms: _53  and  _55
REMARK                            x       y       z     vdW  Elec       q    Type
REMARK                         _______ _______ _______ _____ _____    ______ ____
ROOT
ATOM     10  C   UNL     1      -2.963  -1.680  -2.782  0.00  0.00    +0.038 A 
ATOM     11  C   UNL     1      -2.379  -0.954  -3.851  0.00  0.00    +0.047 A 
ATOM     12  C   UNL     1      -1.606  -1.626  -4.884  0.00  0.00    +0.035 A 
ATOM     32  C   UNL     1      -1.450  -3.040  -4.799  0.00  0.00    +0.024 A 
ATOM     33  C   UNL     1      -2.037  -3.794  -3.719  0.00  0.00    +0.007 A 
ATOM     34  C   UNL     1      -2.798  -3.136  -2.696  0.00  0.00    -0.029 A 
ATOM     35  C   UNL     1      -3.398  -3.994  -1.558  0.00  0.00    +0.045 C 
ENDROOT
BRANCH  10   9
ATOM      4  C   UNL     1      -3.419   1.805   0.486  0.00  0.00    +0.077 A 
ATOM      5  C   UNL     1      -2.075   2.261   0.274  0.00  0.00    +0.048 A 
ATOM      6  C   UNL     1      -1.298   1.567  -0.680  0.00  0.00    +0.116 A 
ATOM      7  N   UNL     1      -1.834   0.498  -1.365  0.00  0.00    -0.223 NA
ATOM      8  C   UNL     1      -3.133   0.083  -1.135  0.00  0.00    +0.220 A 
ATOM      9  N   UNL     1      -3.696  -0.984  -1.818  0.00  0.00    -0.283 N 
ATOM     36  H   UNL     1      -4.655  -1.264  -1.614  0.00  0.00    +0.155 HD
ATOM     37  N   UNL     1      -3.896   0.728  -0.228  0.00  0.00    -0.214 NA
BRANCH   4   3
ATOM      1  C   UNL     1      -5.041   4.277   3.047  0.00  0.00    +0.020 A 
ATOM      2  C   UNL     1      -4.093   3.709   2.117  0.00  0.00    +0.013 A 
ATOM      3  C   UNL     1      -4.366   2.437   1.458  0.00  0.00    +0.019 A 
ATOM     38  C   UNL     1      -5.617   1.761   1.766  0.00  0.00    +0.120 A 
ATOM     39  N   UNL     1      -6.510   2.331   2.667  0.00  0.00    -0.263 NA
ATOM     40  C   UNL     1      -6.258   3.553   3.308  0.00  0.00    +0.111 A 
ENDBRANCH   4   3
ENDBRANCH  10   9
BRANCH  12  13
ATOM     13  N   UNL     1      -0.983  -0.939  -5.988  0.00  0.00    -0.281 N 
ATOM     14  C   UNL     1       0.363  -0.666  -6.170  0.00  0.00    +0.248 C 
ATOM     30  O   UNL     1       1.216  -0.783  -5.303  0.00  0.00    -0.270 OA
ATOM     31  H   UNL     1      -1.609  -0.616  -6.725  0.00  0.00    +0.155 HD
BRANCH  14  15
ATOM     15  C   UNL     1       0.827  -0.178  -7.505  0.00  0.00    +0.037 A 
ATOM     16  C   UNL     1      -0.087  -0.111  -8.649  0.00  0.00    +0.013 A 
ATOM     17  C   UNL     1       0.390   0.348  -9.929  0.00  0.00    +0.005 A 
ATOM     18  C   UNL     1       1.789   0.744 -10.072  0.00  0.00    -0.033 A 
ATOM     28  C   UNL     1       2.672   0.673  -8.920  0.00  0.00    +0.005 A 
ATOM     29  C   UNL     1       2.208   0.223  -7.664  0.00  0.00    +0.013 A 
BRANCH  18  19
ATOM     19  C   UNL     1       2.390   1.226 -11.406  0.00  0.00    +0.119 C 
BRANCH  19  20
ATOM     20  N   UNL     1       3.566   2.143 -11.335  0.00  0.00    -0.302 NA
ATOM     21  C   UNL     1       3.184   3.592 -11.647  0.00  0.00    +0.066 C 
ATOM     22  C   UNL     1       4.422   4.542 -11.546  0.00  0.00    -0.064 C 
ATOM     23  N   UNL     1       5.515   4.053 -12.498  0.00  0.00    +0.379 N 
ATOM     24  C   UNL     1       6.658   4.976 -12.448  0.00  0.00    -0.096 C 
ATOM     25  H   UNL     1       5.101   4.083 -13.532  0.00  0.00    -0.082 HD
ATOM     26  C   UNL     1       5.899   2.611 -12.197  0.00  0.00    -0.064 C 
ATOM     27  C   UNL     1       4.656   1.681 -12.271  0.00  0.00    +0.066 C 
ENDBRANCH  19  20
ENDBRANCH  18  19
ENDBRANCH  14  15
ENDBRANCH  12  13
TORSDOF 6
ENDMDL
MODEL 5
REMARK VINA RESULT:      -8.3     10.487     16.831
REMARK  Name = C:\Users\Docking\Desktop\test protocol\1iep_ligandH.pdb
REMARK  8 active torsions:
REMARK  status: ('A' for Active; 'I' for Inactive)
REMARK    1  A    between atoms: _5  and  _11
REMARK    2  A    between atoms: _19  and  _21
REMARK    3  A    between atoms: _22  and  _66
REMARK    4  A    between atoms: _27  and  _30
REMARK    5  A    between atoms: _32  and  _33
REMARK    6  A    between atoms: _38  and  _43
REMARK    7  A    between atoms: _43  and  _46
REMARK    8  A    between atoms: _53  and  _55
REMARK                            x       y       z     vdW  Elec       q    Type
REMARK                         _______ _______ _______ _____ _____    ______ ____
ROOT
ATOM     10  C   UNL     1      -7.436   7.454  -6.161  0.00  0.00    +0.038 A 
ATOM     11  C   UNL     1      -8.589   7.579  -5.345  0.00  0.00    +0.047 A 
ATOM     12  C   UNL     1      -9.370   6.414  -4.963  0.00  0.00    +0.035 A 
ATOM     32  C   UNL     1      -8.947   5.134  -5.427  0.00  0.00    +0.024 A 
ATOM     33  C   UNL     1      -7.777   4.989  -6.259  0.00  0.00    +0.007 A 
ATOM     34  C   UNL     1      -7.004   6.136  -6.641  0.00  0.00    -0.029 A 
ATOM     35  C   UNL     1      -5.763   5.922  -7.539  0.00  0.00    +0.045 C 
ENDROOT
BRANCH  10   9
ATOM      4  C   UNL     1      -6.983  11.618  -8.505  0.00  0.00    +0.077 A 
ATOM      5  C   UNL     1      -8.264  11.471  -9.134  0.00  0.00    +0.048 A 
ATOM      6  C   UNL     1      -9.005  10.306  -8.833  0.00  0.00    +0.116 A 
ATOM      7  N   UNL     1      -8.493   9.365  -7.966  0.00  0.00    -0.223 NA
ATOM      8  C   UNL     1      -7.254   9.537  -7.378  0.00  0.00    +0.220 A 
ATOM      9  N   UNL     1      -6.723   8.607  -6.497  0.00  0.00    -0.283 N 
ATOM     36  H   UNL     1      -5.801   8.767  -6.090  0.00  0.00    +0.155 HD
ATOM     37  N   UNL     1      -6.526  10.640  -7.650  0.00  0.00    -0.214 NA
BRANCH   4   3
ATOM      1  C   UNL     1      -5.583  15.267  -8.661  0.00  0.00    +0.020 A 
ATOM      2  C   UNL     1      -6.491  14.166  -8.436  0.00  0.00    +0.013 A 
ATOM      3  C   UNL     1      -6.084  12.795  -8.720  0.00  0.00    +0.019 A 
ATOM     38  C   UNL     1      -4.741  12.572  -9.234  0.00  0.00    +0.120 A 
ATOM     39  N   UNL     1      -3.889  13.652  -9.442  0.00  0.00    -0.263 NA
ATOM     40  C   UNL     1      -4.270  14.976  -9.174  0.00  0.00    +0.111 A 
ENDBRANCH   4   3
ENDBRANCH  10   9
BRANCH  12  13
ATOM     13  N   UNL     1     -10.555   6.480  -4.143  0.00  0.00    -0.281 N 
ATOM     14  C   UNL     1     -10.654   6.294  -2.774  0.00  0.00    +0.248 C 
ATOM     30  O   UNL     1      -9.768   5.829  -2.073  0.00  0.00    -0.270 OA
ATOM     31  H   UNL     1     -11.425   6.689  -4.631  0.00  0.00    +0.155 HD
BRANCH  14  15
ATOM     15  C   UNL     1     -11.928   6.664  -2.086  0.00  0.00    +0.037 A 
ATOM     16  C   UNL     1     -12.313   8.066  -1.902  0.00  0.00    +0.013 A 
ATOM     17  C   UNL     1     -13.539   8.396  -1.219  0.00  0.00    +0.005 A 
ATOM     18  C   UNL     1     -14.391   7.321  -0.717  0.00  0.00    -0.033 A 
ATOM     28  C   UNL     1     -13.988   5.939  -0.918  0.00  0.00    +0.005 A 
ATOM     29  C   UNL     1     -12.786   5.612  -1.585  0.00  0.00    +0.013 A 
BRANCH  18  19
ATOM     19  C   UNL     1     -15.706   7.581   0.041  0.00  0.00    +0.119 C 
BRANCH  19  20
ATOM     20  N   UNL     1     -15.890   8.933   0.648  0.00  0.00    -0.302 NA
ATOM     21  C   UNL     1     -16.647   8.868   1.977  0.00  0.00    +0.066 C 
ATOM     22  C   UNL     1     -16.811  10.289   2.609  0.00  0.00    -0.064 C 
ATOM     23  N   UNL     1     -17.532  11.204   1.618  0.00  0.00    +0.379 N 
ATOM     24  C   UNL     1     -17.739  12.525   2.232  0.00  0.00    -0.096 C 
ATOM     25  H   UNL     1     -18.536  10.762   1.420  0.00  0.00    -0.082 HD
ATOM     26  C   UNL     1     -16.788  11.272   0.293  0.00  0.00    -0.064 C 
ATOM     27  C   UNL     1     -16.604   9.852  -0.312  0.00  0.00    +0.066 C 
ENDBRANCH  19  20
ENDBRANCH  18  19
ENDBRANCH  14  15
ENDBRANCH  12  13
TORSDOF 6
ENDMDL
