MODEL 1
REMARK VINA RESULT:     -11.5      0.000      0.000
REMARK  Name = C:\Users\Docking\Desktop\test protocol\1iep_ligandH.pdb
REMARK  8 active torsions:
REMARK  status: ('A' for Active; 'I' for Inactive)
REMARK    1  A    between atoms: _5  and  _11
REMARK    2  A    between atoms: _19  and  _21
REMARK    3  A    between atoms: _22  and  _66
REMARK    4  A    between atoms: _27  and  _30
REMARK    5  A    between atoms: _32  and  _33
REMARK    6  A    between atoms: _38  and  _43
REMARK    7  A    between atoms: _43  and  _46
REMARK    8  A    between atoms: _53  and  _55
REMARK                            x       y       z     vdW  Elec       q    Type
REMARK                         _______ _______ _______ _____ _____    ______ ____
ROOT
ATOM     10  C   UNL     1      24.214  39.627  -3.122  0.00  0.00    +0.038 A 
ATOM     11  C   UNL     1      25.110  40.616  -2.642  0.00  0.00    +0.047 A 
ATOM     12  C   UNL     1      25.644  41.640  -3.526  0.00  0.00    +0.035 A 
ATOM     32  C   UNL     1      25.242  41.628  -4.894  0.00  0.00    +0.024 A 
ATOM     33  C   UNL     1      24.333  40.630  -5.399  0.00  0.00    +0.007 A 
ATOM     34  C   UNL     1      23.805  39.616  -4.532  0.00  0.00    -0.029 A 
ATOM     35  C   UNL     1      22.839  38.566  -5.129  0.00  0.00    +0.045 C 
ENDROOT
BRANCH  10   9
ATOM      4  C   UNL     1      24.789  35.736  -0.371  0.00  0.00    +0.077 A 
ATOM      5  C   UNL     1      26.160  35.586  -0.767  0.00  0.00    +0.048 A 
ATOM      6  C   UNL     1      26.677  36.527  -1.686  0.00  0.00    +0.116 A 
ATOM      7  N   UNL     1      25.873  37.539  -2.166  0.00  0.00    -0.223 NA
ATOM      8  C   UNL     1      24.555  37.653  -1.765  0.00  0.00    +0.220 A 
ATOM      9  N   UNL     1      23.731  38.667  -2.229  0.00  0.00    -0.283 N 
ATOM     36  H   UNL     1      22.762  38.713  -1.915  0.00  0.00    +0.155 HD
ATOM     37  N   UNL     1      24.037  36.767  -0.890  0.00  0.00    -0.214 NA
BRANCH   4   3
ATOM      1  C   UNL     1      22.152  33.394   1.320  0.00  0.00    +0.020 A 
ATOM      2  C   UNL     1      22.772  34.272   0.355  0.00  0.00    +0.013 A 
ATOM      3  C   UNL     1      24.100  34.823   0.595  0.00  0.00    +0.019 A 
ATOM     38  C   UNL     1      24.779  34.463   1.830  0.00  0.00    +0.120 A 
ATOM     39  N   UNL     1      24.155  33.616   2.742  0.00  0.00    -0.263 NA
ATOM     40  C   UNL     1      22.877  33.081   2.523  0.00  0.00    +0.111 A 
ENDBRANCH   4   3
ENDBRANCH  10   9
BRANCH  12  13
ATOM     13  N   UNL     1      26.563  42.665  -3.097  0.00  0.00    -0.281 N 
ATOM     14  C   UNL     1      27.913  42.775  -3.391  0.00  0.00    +0.248 C 
ATOM     30  O   UNL     1      28.585  41.889  -3.896  0.00  0.00    -0.270 OA
ATOM     31  H   UNL     1      26.172  43.397  -2.505  0.00  0.00    +0.155 HD
BRANCH  14  15
ATOM     15  C   UNL     1      28.620  44.051  -3.064  0.00  0.00    +0.037 A 
ATOM     16  C   UNL     1      28.026  45.040  -2.162  0.00  0.00    +0.013 A 
ATOM     17  C   UNL     1      28.722  46.270  -1.877  0.00  0.00    +0.005 A 
ATOM     18  C   UNL     1      30.023  46.516  -2.495  0.00  0.00    -0.033 A 
ATOM     28  C   UNL     1      30.592  45.515  -3.382  0.00  0.00    +0.005 A 
ATOM     29  C   UNL     1      29.912  44.309  -3.664  0.00  0.00    +0.013 A 
BRANCH  18  19
ATOM     19  C   UNL     1      30.827  47.809  -2.264  0.00  0.00    +0.119 C 
BRANCH  19  20
ATOM     20  N   UNL     1      30.053  49.073  -2.088  0.00  0.00    -0.302 NA
ATOM     21  C   UNL     1      29.861  49.428  -0.611  0.00  0.00    +0.066 C 
ATOM     22  C   UNL     1      29.068  50.766  -0.445  0.00  0.00    -0.064 C 
ATOM     23  N   UNL     1      27.718  50.646  -1.154  0.00  0.00    +0.379 N 
ATOM     24  C   UNL     1      26.946  51.881  -0.951  0.00  0.00    -0.096 C 
ATOM     25  H   UNL     1      27.156  49.813  -0.671  0.00  0.00    -0.082 HD
ATOM     26  C   UNL     1      27.899  50.291  -2.622  0.00  0.00    -0.064 C 
ATOM     27  C   UNL     1      28.714  48.976  -2.776  0.00  0.00    +0.066 C 
ENDBRANCH  19  20
ENDBRANCH  18  19
ENDBRANCH  14  15
ENDBRANCH  12  13
TORSDOF 6
ENDMDL
MODEL 2
REMARK VINA RESULT:     -11.4      5.435     10.517
REMARK  Name = C:\Users\Docking\Desktop\test protocol\1iep_ligandH.pdb
REMARK  8 active torsions:
REMARK  status: ('A' for Active; 'I' for Inactive)
REMARK    1  A    between atoms: _5  and  _11
REMARK    2  A    between atoms: _19  and  _21
REMARK    3  A    between atoms: _22  and  _66
REMARK    4  A    between atoms: _27  and  _30
REMARK    5  A    between atoms: _32  and  _33
REMARK    6  A    between atoms: _38  and  _43
REMARK    7  A    between atoms: _43  and  _46
REMARK    8  A    between atoms: _53  and  _55
REMARK                            x       y       z     vdW  Elec       q    Type
REMARK                         _______ _______ _______ _____ _____    ______ ____
ROOT
ATOM     10  C   UNL     1      21.313  30.822   1.638  0.00  0.00    +0.038 A 
ATOM     11  C   UNL     1      21.761  31.866   0.788  0.00  0.00    +0.047 A 
ATOM     12  C   UNL     1      22.228  33.131   1.332  0.00  0.00    +0.035 A 
ATOM     32  C   UNL     1      22.227  33.300   2.748  0.00  0.00    +0.024 A 
ATOM     33  C   UNL     1      21.773  32.250   3.626  0.00  0.00    +0.007 A 
ATOM     34  C   UNL     1      21.309  31.000   3.095  0.00  0.00    -0.029 A 
ATOM     35  C   UNL     1      20.829  29.913   4.084  0.00  0.00    +0.045 C 
ENDROOT
BRANCH  10   9
ATOM      4  C   UNL     1      17.856  27.707   0.461  0.00  0.00    +0.077 A 
ATOM      5  C   UNL     1      16.839  28.516   1.069  0.00  0.00    +0.048 A 
ATOM      6  C   UNL     1      17.248  29.722   1.680  0.00  0.00    +0.116 A 
ATOM      7  N   UNL     1      18.578  30.083   1.677  0.00  0.00    -0.223 NA
ATOM      8  C   UNL     1      19.534  29.280   1.083  0.00  0.00    +0.220 A 
ATOM      9  N   UNL     1      20.876  29.628   1.062  0.00  0.00    -0.283 N 
ATOM     36  H   UNL     1      21.551  29.004   0.620  0.00  0.00    +0.155 HD
ATOM     37  N   UNL     1      19.169  28.122   0.494  0.00  0.00    -0.214 NA
BRANCH   4   3
ATOM      1  C   UNL     1      16.544  24.110  -0.336  0.00  0.00    +0.020 A 
ATOM      2  C   UNL     1      16.780  25.347   0.371  0.00  0.00    +0.013 A 
ATOM      3  C   UNL     1      17.581  26.407  -0.228  0.00  0.00    +0.019 A 
ATOM     38  C   UNL     1      18.134  26.181  -1.555  0.00  0.00    +0.120 A 
ATOM     39  N   UNL     1      17.891  24.979  -2.212  0.00  0.00    -0.263 NA
ATOM     40  C   UNL     1      17.123  23.951  -1.645  0.00  0.00    +0.111 A 
ENDBRANCH   4   3
ENDBRANCH  10   9
BRANCH  12  13
ATOM     13  N   UNL     1      22.687  34.230   0.519  0.00  0.00    -0.281 N 
ATOM     14  C   UNL     1      23.956  34.784   0.475  0.00  0.00    +0.248 C 
ATOM     30  O   UNL     1      24.838  34.557   1.289  0.00  0.00    -0.270 OA
ATOM     31  H   UNL     1      21.993  34.649  -0.100  0.00  0.00    +0.155 HD
BRANCH  14  15
ATOM     15  C   UNL     1      24.288  35.741  -0.625  0.00  0.00    +0.037 A 
ATOM     16  C   UNL     1      23.236  36.437  -1.370  0.00  0.00    +0.013 A 
ATOM     17  C   UNL     1      23.583  37.342  -2.437  0.00  0.00    +0.005 A 
ATOM     18  C   UNL     1      24.990  37.556  -2.765  0.00  0.00    -0.033 A 
ATOM     28  C   UNL     1      26.014  36.857  -2.006  0.00  0.00    +0.005 A 
ATOM     29  C   UNL     1      25.677  35.968  -0.960  0.00  0.00    +0.013 A 
BRANCH  18  19
ATOM     19  C   UNL     1      25.452  38.487  -3.902  0.00  0.00    +0.119 C 
BRANCH  19  20
ATOM     20  N   UNL     1      26.157  39.745  -3.512  0.00  0.00    -0.302 NA
ATOM     21  C   UNL     1      25.176  40.866  -3.157  0.00  0.00    +0.066 C 
ATOM     22  C   UNL     1      25.930  42.168  -2.730  0.00  0.00    -0.064 C 
ATOM     23  N   UNL     1      26.867  42.604  -3.858  0.00  0.00    +0.379 N 
ATOM     24  C   UNL     1      27.535  43.859  -3.483  0.00  0.00    -0.096 C 
ATOM     25  H   UNL     1      26.241  42.809  -4.757  0.00  0.00    -0.082 HD
ATOM     26  C   UNL     1      27.844  41.494  -4.219  0.00  0.00    -0.064 C 
ATOM     27  C   UNL     1      27.084  40.196  -4.613  0.00  0.00    +0.066 C 
ENDBRANCH  19  20
ENDBRANCH  18  19
ENDBRANCH  14  15
ENDBRANCH  12  13
TORSDOF 6
ENDMDL
MODEL 3
REMARK VINA RESULT:     -11.3      5.420     10.977
REMARK  Name = C:\Users\Docking\Desktop\test protocol\1iep_ligandH.pdb
REMARK  8 active torsions:
REMARK  status: ('A' for Active; 'I' for Inactive)
REMARK    1  A    between atoms: _5  and  _11
REMARK    2  A    between atoms: _19  and  _21
REMARK    3  A    between atoms: _22  and  _66
REMARK    4  A    between atoms: _27  and  _30
REMARK    5  A    between atoms: _32  and  _33
REMARK    6  A    between atoms: _38  and  _43
REMARK    7  A    between atoms: _43  and  _46
REMARK    8  A    between atoms: _53  and  _55
REMARK                            x       y       z     vdW  Elec       q    Type
REMARK                         _______ _______ _______ _____ _____    ______ ____
ROOT
ATOM     10  C   UNL     1      25.456  38.954  -3.860  0.00  0.00    +0.038 A 
ATOM     11  C   UNL     1      24.513  39.315  -4.856  0.00  0.00    +0.047 A 
ATOM     12  C   UNL     1      23.161  38.778  -4.842  0.00  0.00    +0.035 A 
ATOM     32  C   UNL     1      22.802  37.878  -3.797  0.00  0.00    +0.024 A 
ATOM     33  C   UNL     1      23.748  37.500  -2.777  0.00  0.00    +0.007 A 
ATOM     34  C   UNL     1      25.084  38.024  -2.786  0.00  0.00    -0.029 A 
ATOM     35  C   UNL     1      26.058  37.579  -1.671  0.00  0.00    +0.045 C 
ENDROOT
BRANCH  10   9
ATOM      4  C   UNL     1      28.503  42.651  -3.563  0.00  0.00    +0.077 A 
ATOM      5  C   UNL     1      27.444  43.578  -3.289  0.00  0.00    +0.048 A 
ATOM      6  C   UNL     1      26.128  43.065  -3.240  0.00  0.00    +0.116 A 
ATOM      7  N   UNL     1      25.901  41.723  -3.450  0.00  0.00    -0.223 NA
ATOM      8  C   UNL     1      26.945  40.855  -3.714  0.00  0.00    +0.220 A 
ATOM      9  N   UNL     1      26.740  39.500  -3.921  0.00  0.00    -0.283 N 
ATOM     36  H   UNL     1      27.536  38.894  -4.121  0.00  0.00    +0.155 HD
ATOM     37  N   UNL     1      28.210  41.321  -3.768  0.00  0.00    -0.214 NA
BRANCH   4   3
ATOM      1  C   UNL     1      31.795  44.684  -4.138  0.00  0.00    +0.020 A 
ATOM      2  C   UNL     1      30.388  44.359  -4.078  0.00  0.00    +0.013 A 
ATOM      3  C   UNL     1      29.947  43.040  -3.645  0.00  0.00    +0.019 A 
ATOM     38  C   UNL     1      30.961  42.064  -3.275  0.00  0.00    +0.120 A 
ATOM     39  N   UNL     1      32.309  42.405  -3.345  0.00  0.00    -0.263 NA
ATOM     40  C   UNL     1      32.746  43.672  -3.762  0.00  0.00    +0.111 A 
ENDBRANCH   4   3
ENDBRANCH  10   9
BRANCH  12  13
ATOM     13  N   UNL     1      22.163  39.102  -5.832  0.00  0.00    -0.281 N 
ATOM     14  C   UNL     1      20.990  39.817  -5.656  0.00  0.00    +0.248 C 
ATOM     30  O   UNL     1      20.513  40.106  -4.568  0.00  0.00    -0.270 OA
ATOM     31  H   UNL     1      22.344  38.762  -6.776  0.00  0.00    +0.155 HD
BRANCH  14  15
ATOM     15  C   UNL     1      20.229  40.263  -6.862  0.00  0.00    +0.037 A 
ATOM     16  C   UNL     1      18.861  40.776  -6.751  0.00  0.00    +0.013 A 
ATOM     17  C   UNL     1      18.142  41.183  -7.932  0.00  0.00    +0.005 A 
ATOM     18  C   UNL     1      18.793  41.082  -9.236  0.00  0.00    -0.033 A 
ATOM     28  C   UNL     1      20.153  40.575  -9.317  0.00  0.00    +0.005 A 
ATOM     29  C   UNL     1      20.859  40.173  -8.162  0.00  0.00    +0.013 A 
BRANCH  18  19
ATOM     19  C   UNL     1      18.095  41.474 -10.552  0.00  0.00    +0.119 C 
BRANCH  19  20
ATOM     20  N   UNL     1      18.215  42.896 -10.992  0.00  0.00    -0.302 NA
ATOM     21  C   UNL     1      18.400  43.015 -12.507  0.00  0.00    +0.066 C 
ATOM     22  C   UNL     1      18.501  44.510 -12.953  0.00  0.00    -0.064 C 
ATOM     23  N   UNL     1      19.657  45.183 -12.212  0.00  0.00    +0.379 N 
ATOM     24  C   UNL     1      19.791  46.573 -12.671  0.00  0.00    -0.096 C 
ATOM     25  H   UNL     1      20.594  44.644 -12.486  0.00  0.00    -0.082 HD
ATOM     26  C   UNL     1      19.482  45.067 -10.704  0.00  0.00    -0.064 C 
ATOM     27  C   UNL     1      19.354  43.579 -10.275  0.00  0.00    +0.066 C 
ENDBRANCH  19  20
ENDBRANCH  18  19
ENDBRANCH  14  15
ENDBRANCH  12  13
TORSDOF 6
ENDMDL
MODEL 4
REMARK VINA RESULT:     -11.2      1.128      1.613
REMARK  Name = C:\Users\Docking\Desktop\test protocol\1iep_ligandH.pdb
REMARK  8 active torsions:
REMARK  status: ('A' for Active; 'I' for Inactive)
REMARK    1  A    between atoms: _5  and  _11
REMARK    2  A    between atoms: _19  and  _21
REMARK    3  A    between atoms: _22  and  _66
REMARK    4  A    between atoms: _27  and  _30
REMARK    5  A    between atoms: _32  and  _33
REMARK    6  A    between atoms: _38  and  _43
REMARK    7  A    between atoms: _43  and  _46
REMARK    8  A    between atoms: _53  and  _55
REMARK                            x       y       z     vdW  Elec       q    Type
REMARK                         _______ _______ _______ _____ _____    ______ ____
ROOT
ATOM     10  C   UNL     1      23.920  38.956  -3.352  0.00  0.00    +0.038 A 
ATOM     11  C   UNL     1      24.970  39.858  -3.043  0.00  0.00    +0.047 A 
ATOM     12  C   UNL     1      25.468  40.801  -4.033  0.00  0.00    +0.035 A 
ATOM     32  C   UNL     1      24.871  40.800  -5.327  0.00  0.00    +0.024 A 
ATOM     33  C   UNL     1      23.804  39.889  -5.659  0.00  0.00    +0.007 A 
ATOM     34  C   UNL     1      23.310  38.955  -4.687  0.00  0.00    -0.029 A 
ATOM     35  C   UNL     1      22.168  37.997  -5.100  0.00  0.00    +0.045 C 
ENDROOT
BRANCH  10   9
ATOM      4  C   UNL     1      24.681  35.428  -0.188  0.00  0.00    +0.077 A 
ATOM      5  C   UNL     1      26.064  35.318  -0.554  0.00  0.00    +0.048 A 
ATOM      6  C   UNL     1      26.538  36.183  -1.566  0.00  0.00    +0.116 A 
ATOM      7  N   UNL     1      25.685  37.086  -2.160  0.00  0.00    -0.223 NA
ATOM      8  C   UNL     1      24.356  37.166  -1.785  0.00  0.00    +0.220 A 
ATOM      9  N   UNL     1      23.482  38.073  -2.363  0.00  0.00    -0.283 N 
ATOM     36  H   UNL     1      22.507  38.095  -2.064  0.00  0.00    +0.155 HD
ATOM     37  N   UNL     1      23.879  36.350  -0.822  0.00  0.00    -0.214 NA
BRANCH   4   3
ATOM      1  C   UNL     1      24.030  33.402   3.094  0.00  0.00    +0.020 A 
ATOM      2  C   UNL     1      24.702  34.216   2.108  0.00  0.00    +0.013 A 
ATOM      3  C   UNL     1      24.033  34.587   0.867  0.00  0.00    +0.019 A 
ATOM     38  C   UNL     1      22.673  34.113   0.653  0.00  0.00    +0.120 A 
ATOM     39  N   UNL     1      22.053  33.328   1.620  0.00  0.00    -0.263 NA
ATOM     40  C   UNL     1      22.687  32.964   2.817  0.00  0.00    +0.111 A 
ENDBRANCH   4   3
ENDBRANCH  10   9
BRANCH  12  13
ATOM     13  N   UNL     1      26.537  41.735  -3.780  0.00  0.00    -0.281 N 
ATOM     14  C   UNL     1      26.524  43.110  -3.948  0.00  0.00    +0.248 C 
ATOM     30  O   UNL     1      25.655  43.725  -4.547  0.00  0.00    -0.270 OA
ATOM     31  H   UNL     1      27.409  41.334  -3.434  0.00  0.00    +0.155 HD
BRANCH  14  15
ATOM     15  C   UNL     1      27.646  43.917  -3.379  0.00  0.00    +0.037 A 
ATOM     16  C   UNL     1      29.028  43.717  -3.825  0.00  0.00    +0.013 A 
ATOM     17  C   UNL     1      30.094  44.498  -3.248  0.00  0.00    +0.005 A 
ATOM     18  C   UNL     1      29.781  45.487  -2.219  0.00  0.00    -0.033 A 
ATOM     28  C   UNL     1      28.402  45.669  -1.800  0.00  0.00    +0.005 A 
ATOM     29  C   UNL     1      27.354  44.905  -2.362  0.00  0.00    +0.013 A 
BRANCH  18  19
ATOM     19  C   UNL     1      30.858  46.349  -1.534  0.00  0.00    +0.119 C 
BRANCH  19  20
ATOM     20  N   UNL     1      30.569  47.806  -1.376  0.00  0.00    -0.302 NA
ATOM     21  C   UNL     1      30.050  48.140   0.025  0.00  0.00    +0.066 C 
ATOM     22  C   UNL     1      29.774  49.672   0.179  0.00  0.00    -0.064 C 
ATOM     23  N   UNL     1      28.775  50.118  -0.890  0.00  0.00    +0.379 N 
ATOM     24  C   UNL     1      28.469  51.544  -0.711  0.00  0.00    -0.096 C 
ATOM     25  H   UNL     1      27.831  49.547  -0.729  0.00  0.00    -0.082 HD
ATOM     26  C   UNL     1      29.282  49.786  -2.286  0.00  0.00    -0.064 C 
ATOM     27  C   UNL     1      29.581  48.267  -2.420  0.00  0.00    +0.066 C 
ENDBRANCH  19  20
ENDBRANCH  18  19
ENDBRANCH  14  15
ENDBRANCH  12  13
TORSDOF 6
ENDMDL
MODEL 5
REMARK VINA RESULT:     -11.2      5.079      7.796
REMARK  Name = C:\Users\Docking\Desktop\test protocol\1iep_ligandH.pdb
REMARK  8 active torsions:
REMARK  status: ('A' for Active; 'I' for Inactive)
REMARK    1  A    between atoms: _5  and  _11
REMARK    2  A    between atoms: _19  and  _21
REMARK    3  A    between atoms: _22  and  _66
REMARK    4  A    between atoms: _27  and  _30
REMARK    5  A    between atoms: _32  and  _33
REMARK    6  A    between atoms: _38  and  _43
REMARK    7  A    between atoms: _43  and  _46
REMARK    8  A    between atoms: _53  and  _55
REMARK                            x       y       z     vdW  Elec       q    Type
REMARK                         _______ _______ _______ _____ _____    ______ ____
ROOT
ATOM     10  C   UNL     1      26.840  42.375  -2.961  0.00  0.00    +0.038 A 
ATOM     11  C   UNL     1      27.646  43.201  -3.785  0.00  0.00    +0.047 A 
ATOM     12  C   UNL     1      28.957  43.652  -3.346  0.00  0.00    +0.035 A 
ATOM     32  C   UNL     1      29.418  43.241  -2.062  0.00  0.00    +0.024 A 
ATOM     33  C   UNL     1      28.612  42.402  -1.210  0.00  0.00    +0.007 A 
ATOM     34  C   UNL     1      27.316  41.956  -1.637  0.00  0.00    -0.029 A 
ATOM     35  C   UNL     1      26.492  41.064  -0.680  0.00  0.00    +0.045 C 
ENDROOT
BRANCH  10   9
ATOM      4  C   UNL     1      24.030  39.482  -5.563  0.00  0.00    +0.077 A 
ATOM      5  C   UNL     1      25.152  38.728  -6.044  0.00  0.00    +0.048 A 
ATOM      6  C   UNL     1      26.435  39.121  -5.604  0.00  0.00    +0.116 A 
ATOM      7  N   UNL     1      26.575  40.191  -4.746  0.00  0.00    -0.223 NA
ATOM      8  C   UNL     1      25.472  40.898  -4.302  0.00  0.00    +0.220 A 
ATOM      9  N   UNL     1      25.589  41.971  -3.433  0.00  0.00    -0.283 N 
ATOM     36  H   UNL     1      24.752  42.471  -3.134  0.00  0.00    +0.155 HD
ATOM     37  N   UNL     1      24.236  40.542  -4.709  0.00  0.00    -0.214 NA
BRANCH   4   3
ATOM      1  C   UNL     1      20.854  38.242  -7.481  0.00  0.00    +0.020 A 
ATOM      2  C   UNL     1      22.240  38.504  -7.169  0.00  0.00    +0.013 A 
ATOM      3  C   UNL     1      22.610  39.186  -5.935  0.00  0.00    +0.019 A 
ATOM     38  C   UNL     1      21.545  39.594  -5.032  0.00  0.00    +0.120 A 
ATOM     39  N   UNL     1      20.219  39.330  -5.359  0.00  0.00    -0.263 NA
ATOM     40  C   UNL     1      19.851  38.675  -6.544  0.00  0.00    +0.111 A 
ENDBRANCH   4   3
ENDBRANCH  10   9
BRANCH  12  13
ATOM     13  N   UNL     1      29.816  44.499  -4.137  0.00  0.00    -0.281 N 
ATOM     14  C   UNL     1      31.169  44.741  -3.960  0.00  0.00    +0.248 C 
ATOM     30  O   UNL     1      31.802  44.432  -2.962  0.00  0.00    -0.270 OA
ATOM     31  H   UNL     1      29.374  44.977  -4.922  0.00  0.00    +0.155 HD
BRANCH  14  15
ATOM     15  C   UNL     1      31.924  45.441  -5.043  0.00  0.00    +0.037 A 
ATOM     16  C   UNL     1      31.229  46.207  -6.082  0.00  0.00    +0.013 A 
ATOM     17  C   UNL     1      31.981  46.859  -7.125  0.00  0.00    +0.005 A 
ATOM     18  C   UNL     1      33.438  46.748  -7.134  0.00  0.00    -0.033 A 
ATOM     28  C   UNL     1      34.102  45.987  -6.089  0.00  0.00    +0.005 A 
ATOM     29  C   UNL     1      33.368  45.346  -5.065  0.00  0.00    +0.013 A 
BRANCH  18  19
ATOM     19  C   UNL     1      34.319  47.393  -8.220  0.00  0.00    +0.119 C 
BRANCH  19  20
ATOM     20  N   UNL     1      34.679  46.549  -9.398  0.00  0.00    -0.302 NA
ATOM     21  C   UNL     1      33.473  45.777  -9.942  0.00  0.00    +0.066 C 
ATOM     22  C   UNL     1      33.863  44.917 -11.188  0.00  0.00    -0.064 C 
ATOM     23  N   UNL     1      34.994  43.959 -10.810  0.00  0.00    +0.379 N 
ATOM     24  C   UNL     1      35.323  43.108 -11.963  0.00  0.00    -0.096 C 
ATOM     25  H   UNL     1      34.617  43.295  -9.997  0.00  0.00    -0.082 HD
ATOM     26  C   UNL     1      36.195  44.718 -10.265  0.00  0.00    -0.064 C 
ATOM     27  C   UNL     1      35.791  45.592  -9.046  0.00  0.00    +0.066 C 
ENDBRANCH  19  20
ENDBRANCH  18  19
ENDBRANCH  14  15
ENDBRANCH  12  13
TORSDOF 6
ENDMDL
