MODEL 1
REMARK VINA RESULT:      -8.5      0.000      0.000
REMARK  Name = C:\Users\Docking\Desktop\test protocol\1iep_ligandH.pdb
REMARK  8 active torsions:
REMARK  status: ('A' for Active; 'I' for Inactive)
REMARK    1  A    between atoms: _5  and  _11
REMARK    2  A    between atoms: _19  and  _21
REMARK    3  A    between atoms: _22  and  _66
REMARK    4  A    between atoms: _27  and  _30
REMARK    5  A    between atoms: _32  and  _33
REMARK    6  A    between atoms: _38  and  _43
REMARK    7  A    between atoms: _43  and  _46
REMARK    8  A    between atoms: _53  and  _55
REMARK                            x       y       z     vdW  Elec       q    Type
REMARK                         _______ _______ _______ _____ _____    ______ ____
ROOT
ATOM     10  C   UNL     1      73.669  80.159   5.524  0.00  0.00    +0.038 A 
ATOM     11  C   UNL     1      72.732  79.100   5.408  0.00  0.00    +0.047 A 
ATOM     12  C   UNL     1      71.540  79.237   4.584  0.00  0.00    +0.035 A 
ATOM     32  C   UNL     1      71.336  80.465   3.890  0.00  0.00    +0.024 A 
ATOM     33  C   UNL     1      72.278  81.551   3.997  0.00  0.00    +0.007 A 
ATOM     34  C   UNL     1      73.454  81.423   4.810  0.00  0.00    -0.029 A 
ATOM     35  C   UNL     1      74.426  82.623   4.893  0.00  0.00    +0.045 C 
ENDROOT
BRANCH  10   9
ATOM      4  C   UNL     1      75.754  78.931   9.669  0.00  0.00    +0.077 A 
ATOM      5  C   UNL     1      74.491  78.662  10.293  0.00  0.00    +0.048 A 
ATOM      6  C   UNL     1      73.328  78.859   9.515  0.00  0.00    +0.116 A 
ATOM      7  N   UNL     1      73.432  79.292   8.211  0.00  0.00    -0.223 NA
ATOM      8  C   UNL     1      74.666  79.544   7.640  0.00  0.00    +0.220 A 
ATOM      9  N   UNL     1      74.795  79.973   6.328  0.00  0.00    -0.283 N 
ATOM     36  H   UNL     1      75.723  80.155   5.946  0.00  0.00    +0.155 HD
ATOM     37  N   UNL     1      75.792  79.365   8.363  0.00  0.00    -0.214 NA
BRANCH   4   3
ATOM      1  C   UNL     1      78.735  77.444  11.719  0.00  0.00    +0.020 A 
ATOM      2  C   UNL     1      77.449  77.551  11.069  0.00  0.00    +0.013 A 
ATOM      3  C   UNL     1      77.072  78.767  10.359  0.00  0.00    +0.019 A 
ATOM     38  C   UNL     1      78.027  79.865  10.325  0.00  0.00    +0.120 A 
ATOM     39  N   UNL     1      79.258  79.733  10.962  0.00  0.00    -0.263 NA
ATOM     40  C   UNL     1      79.631  78.569  11.649  0.00  0.00    +0.111 A 
ENDBRANCH   4   3
ENDBRANCH  10   9
BRANCH  12  13
ATOM     13  N   UNL     1      70.550  78.200   4.435  0.00  0.00    -0.281 N 
ATOM     14  C   UNL     1      69.260  78.175   4.940  0.00  0.00    +0.248 C 
ATOM     30  O   UNL     1      68.833  78.951   5.782  0.00  0.00    -0.270 OA
ATOM     31  H   UNL     1      70.834  77.385   3.890  0.00  0.00    +0.155 HD
BRANCH  14  15
ATOM     15  C   UNL     1      68.313  77.128   4.450  0.00  0.00    +0.037 A 
ATOM     16  C   UNL     1      68.791  75.957   3.710  0.00  0.00    +0.013 A 
ATOM     17  C   UNL     1      67.854  74.970   3.234  0.00  0.00    +0.005 A 
ATOM     18  C   UNL     1      66.429  75.150   3.498  0.00  0.00    -0.033 A 
ATOM     28  C   UNL     1      65.982  76.318   4.240  0.00  0.00    +0.005 A 
ATOM     29  C   UNL     1      66.898  77.288   4.707  0.00  0.00    +0.013 A 
BRANCH  18  19
ATOM     19  C   UNL     1      65.356  74.159   3.010  0.00  0.00    +0.119 C 
BRANCH  19  20
ATOM     20  N   UNL     1      65.343  72.802   3.634  0.00  0.00    -0.302 NA
ATOM     21  C   UNL     1      64.992  71.707   2.623  0.00  0.00    +0.066 C 
ATOM     22  C   UNL     1      65.006  70.292   3.288  0.00  0.00    -0.064 C 
ATOM     23  N   UNL     1      64.029  70.276   4.465  0.00  0.00    +0.379 N 
ATOM     24  C   UNL     1      63.996  68.930   5.056  0.00  0.00    -0.096 C 
ATOM     25  H   UNL     1      63.012  70.494   4.063  0.00  0.00    -0.082 HD
ATOM     26  C   UNL     1      64.369  71.363   5.474  0.00  0.00    -0.064 C 
ATOM     27  C   UNL     1      64.382  72.762   4.796  0.00  0.00    +0.066 C 
ENDBRANCH  19  20
ENDBRANCH  18  19
ENDBRANCH  14  15
ENDBRANCH  12  13
TORSDOF 6
ENDMDL
MODEL 2
REMARK VINA RESULT:      -8.1      5.034      7.702
REMARK  Name = C:\Users\Docking\Desktop\test protocol\1iep_ligandH.pdb
REMARK  8 active torsions:
REMARK  status: ('A' for Active; 'I' for Inactive)
REMARK    1  A    between atoms: _5  and  _11
REMARK    2  A    between atoms: _19  and  _21
REMARK    3  A    between atoms: _22  and  _66
REMARK    4  A    between atoms: _27  and  _30
REMARK    5  A    between atoms: _32  and  _33
REMARK    6  A    between atoms: _38  and  _43
REMARK    7  A    between atoms: _43  and  _46
REMARK    8  A    between atoms: _53  and  _55
REMARK                            x       y       z     vdW  Elec       q    Type
REMARK                         _______ _______ _______ _____ _____    ______ ____
ROOT
ATOM     10  C   UNL     1      74.476  80.342   9.128  0.00  0.00    +0.038 A 
ATOM     11  C   UNL     1      73.224  79.766   9.463  0.00  0.00    +0.047 A 
ATOM     12  C   UNL     1      73.145  78.482  10.143  0.00  0.00    +0.035 A 
ATOM     32  C   UNL     1      74.361  77.814  10.468  0.00  0.00    +0.024 A 
ATOM     33  C   UNL     1      75.642  78.385  10.134  0.00  0.00    +0.007 A 
ATOM     34  C   UNL     1      75.726  79.650   9.462  0.00  0.00    -0.029 A 
ATOM     35  C   UNL     1      77.126  80.212   9.122  0.00  0.00    +0.045 C 
ENDROOT
BRANCH  10   9
ATOM      4  C   UNL     1      73.929  83.073   5.219  0.00  0.00    +0.077 A 
ATOM      5  C   UNL     1      73.607  81.940   4.400  0.00  0.00    +0.048 A 
ATOM      6  C   UNL     1      73.600  80.671   5.022  0.00  0.00    +0.116 A 
ATOM      7  N   UNL     1      73.894  80.556   6.363  0.00  0.00    -0.223 NA
ATOM      8  C   UNL     1      74.202  81.669   7.124  0.00  0.00    +0.220 A 
ATOM      9  N   UNL     1      74.493  81.577   8.476  0.00  0.00    -0.283 N 
ATOM     36  H   UNL     1      74.723  82.421   9.001  0.00  0.00    +0.155 HD
ATOM     37  N   UNL     1      74.217  82.891   6.553  0.00  0.00    -0.214 NA
BRANCH   4   3
ATOM      1  C   UNL     1      73.719  86.206   2.886  0.00  0.00    +0.020 A 
ATOM      2  C   UNL     1      73.661  84.832   3.329  0.00  0.00    +0.013 A 
ATOM      3  C   UNL     1      73.974  84.479   4.708  0.00  0.00    +0.019 A 
ATOM     38  C   UNL     1      74.345  85.550   5.622  0.00  0.00    +0.120 A 
ATOM     39  N   UNL     1      74.394  86.864   5.167  0.00  0.00    -0.263 NA
ATOM     40  C   UNL     1      74.096  87.215   3.841  0.00  0.00    +0.111 A 
ENDBRANCH   4   3
ENDBRANCH  10   9
BRANCH  12  13
ATOM     13  N   UNL     1      71.902  77.844  10.501  0.00  0.00    -0.281 N 
ATOM     14  C   UNL     1      70.974  77.255   9.659  0.00  0.00    +0.248 C 
ATOM     30  O   UNL     1      70.968  77.377   8.443  0.00  0.00    -0.270 OA
ATOM     31  H   UNL     1      71.681  77.823  11.497  0.00  0.00    +0.155 HD
BRANCH  14  15
ATOM     15  C   UNL     1      69.885  76.421  10.255  0.00  0.00    +0.037 A 
ATOM     16  C   UNL     1      68.490  76.581   9.836  0.00  0.00    +0.013 A 
ATOM     17  C   UNL     1      67.457  75.776  10.439  0.00  0.00    +0.005 A 
ATOM     18  C   UNL     1      67.817  74.802  11.467  0.00  0.00    -0.033 A 
ATOM     28  C   UNL     1      69.209  74.660  11.859  0.00  0.00    +0.005 A 
ATOM     29  C   UNL     1      70.224  75.448  11.271  0.00  0.00    +0.013 A 
BRANCH  18  19
ATOM     19  C   UNL     1      66.778  73.916  12.179  0.00  0.00    +0.119 C 
BRANCH  19  20
ATOM     20  N   UNL     1      67.214  72.548  12.591  0.00  0.00    -0.302 NA
ATOM     21  C   UNL     1      66.866  71.493  11.537  0.00  0.00    +0.066 C 
ATOM     22  C   UNL     1      67.349  70.071  11.974  0.00  0.00    -0.064 C 
ATOM     23  N   UNL     1      66.723  69.716  13.324  0.00  0.00    +0.379 N 
ATOM     24  C   UNL     1      67.129  68.357  13.710  0.00  0.00    -0.096 C 
ATOM     25  H   UNL     1      65.616  69.714  13.193  0.00  0.00    -0.082 HD
ATOM     26  C   UNL     1      67.062  70.761  14.377  0.00  0.00    -0.064 C 
ATOM     27  C   UNL     1      66.604  72.175  13.920  0.00  0.00    +0.066 C 
ENDBRANCH  19  20
ENDBRANCH  18  19
ENDBRANCH  14  15
ENDBRANCH  12  13
TORSDOF 6
ENDMDL
MODEL 3
REMARK VINA RESULT:      -8.0      8.198     13.545
REMARK  Name = C:\Users\Docking\Desktop\test protocol\1iep_ligandH.pdb
REMARK  8 active torsions:
REMARK  status: ('A' for Active; 'I' for Inactive)
REMARK    1  A    between atoms: _5  and  _11
REMARK    2  A    between atoms: _19  and  _21
REMARK    3  A    between atoms: _22  and  _66
REMARK    4  A    between atoms: _27  and  _30
REMARK    5  A    between atoms: _32  and  _33
REMARK    6  A    between atoms: _38  and  _43
REMARK    7  A    between atoms: _43  and  _46
REMARK    8  A    between atoms: _53  and  _55
REMARK                            x       y       z     vdW  Elec       q    Type
REMARK                         _______ _______ _______ _____ _____    ______ ____
ROOT
ATOM     10  C   UNL     1      66.644  71.017  12.246  0.00  0.00    +0.038 A 
ATOM     11  C   UNL     1      67.679  71.969  12.059  0.00  0.00    +0.047 A 
ATOM     12  C   UNL     1      67.633  72.925  10.964  0.00  0.00    +0.035 A 
ATOM     32  C   UNL     1      66.515  72.886  10.080  0.00  0.00    +0.024 A 
ATOM     33  C   UNL     1      65.455  71.925  10.255  0.00  0.00    +0.007 A 
ATOM     34  C   UNL     1      65.497  70.978  11.332  0.00  0.00    -0.029 A 
ATOM     35  C   UNL     1      64.335  69.966  11.467  0.00  0.00    +0.045 C 
ENDROOT
BRANCH  10   9
ATOM      4  C   UNL     1      65.627  69.661  16.736  0.00  0.00    +0.077 A 
ATOM      5  C   UNL     1      64.861  70.849  16.985  0.00  0.00    +0.048 A 
ATOM      6  C   UNL     1      64.760  71.787  15.933  0.00  0.00    +0.116 A 
ATOM      7  N   UNL     1      65.382  71.545  14.727  0.00  0.00    -0.223 NA
ATOM      8  C   UNL     1      66.113  70.390  14.521  0.00  0.00    +0.220 A 
ATOM      9  N   UNL     1      66.740  70.122  13.314  0.00  0.00    -0.283 N 
ATOM     36  H   UNL     1      67.277  69.262  13.204  0.00  0.00    +0.155 HD
ATOM     37  N   UNL     1      66.226  69.479  15.510  0.00  0.00    -0.214 NA
BRANCH   4   3
ATOM      1  C   UNL     1      67.112  67.456  19.605  0.00  0.00    +0.020 A 
ATOM      2  C   UNL     1      66.969  68.527  18.647  0.00  0.00    +0.013 A 
ATOM      3  C   UNL     1      65.823  68.575  17.747  0.00  0.00    +0.019 A 
ATOM     38  C   UNL     1      64.831  67.515  17.845  0.00  0.00    +0.120 A 
ATOM     39  N   UNL     1      64.995  66.495  18.777  0.00  0.00    -0.263 NA
ATOM     40  C   UNL     1      66.095  66.438  19.647  0.00  0.00    +0.111 A 
ENDBRANCH   4   3
ENDBRANCH  10   9
BRANCH  12  13
ATOM     13  N   UNL     1      68.658  73.909  10.719  0.00  0.00    -0.281 N 
ATOM     14  C   UNL     1      69.105  74.904  11.573  0.00  0.00    +0.248 C 
ATOM     30  O   UNL     1      68.540  75.235  12.604  0.00  0.00    -0.270 OA
ATOM     31  H   UNL     1      69.109  73.867   9.805  0.00  0.00    +0.155 HD
BRANCH  14  15
ATOM     15  C   UNL     1      70.354  75.648  11.224  0.00  0.00    +0.037 A 
ATOM     16  C   UNL     1      70.910  76.662  12.122  0.00  0.00    +0.013 A 
ATOM     17  C   UNL     1      72.106  77.378  11.753  0.00  0.00    +0.005 A 
ATOM     18  C   UNL     1      72.755  77.079  10.479  0.00  0.00    -0.033 A 
ATOM     28  C   UNL     1      72.184  76.064   9.609  0.00  0.00    +0.005 A 
ATOM     29  C   UNL     1      71.011  75.362   9.966  0.00  0.00    +0.013 A 
BRANCH  18  19
ATOM     19  C   UNL     1      74.022  77.808   9.994  0.00  0.00    +0.119 C 
BRANCH  19  20
ATOM     20  N   UNL     1      73.838  78.926   9.021  0.00  0.00    -0.302 NA
ATOM     21  C   UNL     1      73.869  78.436   7.571  0.00  0.00    +0.066 C 
ATOM     22  C   UNL     1      73.653  79.615   6.567  0.00  0.00    -0.064 C 
ATOM     23  N   UNL     1      74.723  80.683   6.801  0.00  0.00    +0.379 N 
ATOM     24  C   UNL     1      74.557  81.766   5.820  0.00  0.00    -0.096 C 
ATOM     25  H   UNL     1      75.716  80.211   6.619  0.00  0.00    -0.082 HD
ATOM     26  C   UNL     1      74.701  81.174   8.241  0.00  0.00    -0.064 C 
ATOM     27  C   UNL     1      74.887  79.990   9.231  0.00  0.00    +0.066 C 
ENDBRANCH  19  20
ENDBRANCH  18  19
ENDBRANCH  14  15
ENDBRANCH  12  13
TORSDOF 6
ENDMDL
MODEL 4
REMARK VINA RESULT:      -8.0     17.766     19.875
REMARK  Name = C:\Users\Docking\Desktop\test protocol\1iep_ligandH.pdb
REMARK  8 active torsions:
REMARK  status: ('A' for Active; 'I' for Inactive)
REMARK    1  A    between atoms: _5  and  _11
REMARK    2  A    between atoms: _19  and  _21
REMARK    3  A    between atoms: _22  and  _66
REMARK    4  A    between atoms: _27  and  _30
REMARK    5  A    between atoms: _32  and  _33
REMARK    6  A    between atoms: _38  and  _43
REMARK    7  A    between atoms: _43  and  _46
REMARK    8  A    between atoms: _53  and  _55
REMARK                            x       y       z     vdW  Elec       q    Type
REMARK                         _______ _______ _______ _____ _____    ______ ____
ROOT
ATOM     10  C   UNL     1      65.237  68.284  19.915  0.00  0.00    +0.038 A 
ATOM     11  C   UNL     1      66.296  67.385  19.627  0.00  0.00    +0.047 A 
ATOM     12  C   UNL     1      66.043  66.109  18.974  0.00  0.00    +0.035 A 
ATOM     32  C   UNL     1      64.700  65.783  18.626  0.00  0.00    +0.024 A 
ATOM     33  C   UNL     1      63.612  66.685  18.912  0.00  0.00    +0.007 A 
ATOM     34  C   UNL     1      63.855  67.943  19.558  0.00  0.00    -0.029 A 
ATOM     35  C   UNL     1      62.649  68.868  19.846  0.00  0.00    +0.045 C 
ENDROOT
BRANCH  10   9
ATOM      4  C   UNL     1      66.080  70.927  23.832  0.00  0.00    +0.077 A 
ATOM      5  C   UNL     1      65.879  69.805  24.704  0.00  0.00    +0.048 A 
ATOM      6  C   UNL     1      65.554  68.567  24.105  0.00  0.00    +0.116 A 
ATOM      7  N   UNL     1      65.441  68.470  22.735  0.00  0.00    -0.223 NA
ATOM      8  C   UNL     1      65.639  69.572  21.923  0.00  0.00    +0.220 A 
ATOM      9  N   UNL     1      65.537  69.495  20.542  0.00  0.00    -0.283 N 
ATOM     36  H   UNL     1      65.683  70.333  19.979  0.00  0.00    +0.155 HD
ATOM     37  N   UNL     1      65.949  70.765  22.471  0.00  0.00    -0.214 NA
BRANCH   4   3
ATOM      1  C   UNL     1      66.025  74.343  25.736  0.00  0.00    +0.020 A 
ATOM      2  C   UNL     1      65.641  73.019  25.304  0.00  0.00    +0.013 A 
ATOM      3  C   UNL     1      66.432  72.299  24.314  0.00  0.00    +0.019 A 
ATOM     38  C   UNL     1      67.616  72.953  23.777  0.00  0.00    +0.120 A 
ATOM     39  N   UNL     1      67.960  74.229  24.211  0.00  0.00    -0.263 NA
ATOM     40  C   UNL     1      67.206  74.932  25.162  0.00  0.00    +0.111 A 
ENDBRANCH   4   3
ENDBRANCH  10   9
BRANCH  12  13
ATOM     13  N   UNL     1      67.076  65.153  18.664  0.00  0.00    -0.281 N 
ATOM     14  C   UNL     1      67.604  64.842  17.422  0.00  0.00    +0.248 C 
ATOM     30  O   UNL     1      67.115  65.189  16.357  0.00  0.00    -0.270 OA
ATOM     31  H   UNL     1      67.466  64.642  19.457  0.00  0.00    +0.155 HD
BRANCH  14  15
ATOM     15  C   UNL     1      68.846  64.014  17.352  0.00  0.00    +0.037 A 
ATOM     16  C   UNL     1      69.815  64.187  16.266  0.00  0.00    +0.013 A 
ATOM     17  C   UNL     1      70.997  63.363  16.213  0.00  0.00    +0.005 A 
ATOM     18  C   UNL     1      71.217  62.359  17.251  0.00  0.00    -0.033 A 
ATOM     28  C   UNL     1      70.243  62.212  18.320  0.00  0.00    +0.005 A 
ATOM     29  C   UNL     1      69.083  63.017  18.374  0.00  0.00    +0.013 A 
BRANCH  18  19
ATOM     19  C   UNL     1      72.439  61.422  17.262  0.00  0.00    +0.119 C 
BRANCH  19  20
ATOM     20  N   UNL     1      73.531  61.734  18.232  0.00  0.00    -0.302 NA
ATOM     21  C   UNL     1      74.894  61.852  17.545  0.00  0.00    +0.066 C 
ATOM     22  C   UNL     1      76.021  62.201  18.572  0.00  0.00    -0.064 C 
ATOM     23  N   UNL     1      76.057  61.133  19.666  0.00  0.00    +0.379 N 
ATOM     24  C   UNL     1      77.153  61.426  20.601  0.00  0.00    -0.096 C 
ATOM     25  H   UNL     1      76.281  60.156  19.178  0.00  0.00    -0.082 HD
ATOM     26  C   UNL     1      74.705  61.007  20.353  0.00  0.00    -0.064 C 
ATOM     27  C   UNL     1      73.588  60.689  19.320  0.00  0.00    +0.066 C 
ENDBRANCH  19  20
ENDBRANCH  18  19
ENDBRANCH  14  15
ENDBRANCH  12  13
TORSDOF 6
ENDMDL
MODEL 5
REMARK VINA RESULT:      -7.9      3.892     13.647
REMARK  Name = C:\Users\Docking\Desktop\test protocol\1iep_ligandH.pdb
REMARK  8 active torsions:
REMARK  status: ('A' for Active; 'I' for Inactive)
REMARK    1  A    between atoms: _5  and  _11
REMARK    2  A    between atoms: _19  and  _21
REMARK    3  A    between atoms: _22  and  _66
REMARK    4  A    between atoms: _27  and  _30
REMARK    5  A    between atoms: _32  and  _33
REMARK    6  A    between atoms: _38  and  _43
REMARK    7  A    between atoms: _43  and  _46
REMARK    8  A    between atoms: _53  and  _55
REMARK                            x       y       z     vdW  Elec       q    Type
REMARK                         _______ _______ _______ _____ _____    ______ ____
ROOT
ATOM     10  C   UNL     1      71.475  77.125   9.606  0.00  0.00    +0.038 A 
ATOM     11  C   UNL     1      72.600  77.958   9.377  0.00  0.00    +0.047 A 
ATOM     12  C   UNL     1      73.412  78.446  10.480  0.00  0.00    +0.035 A 
ATOM     32  C   UNL     1      73.051  78.064  11.805  0.00  0.00    +0.024 A 
ATOM     33  C   UNL     1      71.910  77.219  12.056  0.00  0.00    +0.007 A 
ATOM     34  C   UNL     1      71.104  76.736  10.972  0.00  0.00    -0.029 A 
ATOM     35  C   UNL     1      69.889  75.839  11.300  0.00  0.00    +0.045 C 
ENDROOT
BRANCH  10   9
ATOM      4  C   UNL     1      69.398  77.841   5.338  0.00  0.00    +0.077 A 
ATOM      5  C   UNL     1      69.807  79.215   5.304  0.00  0.00    +0.048 A 
ATOM      6  C   UNL     1      70.545  79.701   6.407  0.00  0.00    +0.116 A 
ATOM      7  N   UNL     1      70.845  78.865   7.460  0.00  0.00    -0.223 NA
ATOM      8  C   UNL     1      70.433  77.545   7.463  0.00  0.00    +0.220 A 
ATOM      9  N   UNL     1      70.731  76.685   8.509  0.00  0.00    -0.283 N 
ATOM     36  H   UNL     1      70.403  75.720   8.477  0.00  0.00    +0.155 HD
ATOM     37  N   UNL     1      69.727  77.058   6.422  0.00  0.00    -0.214 NA
BRANCH   4   3
ATOM      1  C   UNL     1      66.461  76.367   3.217  0.00  0.00    +0.020 A 
ATOM      2  C   UNL     1      67.169  77.012   4.298  0.00  0.00    +0.013 A 
ATOM      3  C   UNL     1      68.615  77.180   4.246  0.00  0.00    +0.019 A 
ATOM     38  C   UNL     1      69.322  76.682   3.076  0.00  0.00    +0.120 A 
ATOM     39  N   UNL     1      68.613  76.063   2.050  0.00  0.00    -0.263 NA
ATOM     40  C   UNL     1      67.221  75.894   2.090  0.00  0.00    +0.111 A 
ENDBRANCH   4   3
ENDBRANCH  10   9
BRANCH  12  13
ATOM     13  N   UNL     1      74.561  79.301  10.309  0.00  0.00    -0.281 N 
ATOM     14  C   UNL     1      75.886  79.013  10.592  0.00  0.00    +0.248 C 
ATOM     30  O   UNL     1      76.261  78.046  11.238  0.00  0.00    -0.270 OA
ATOM     31  H   UNL     1      74.374  80.231   9.935  0.00  0.00    +0.155 HD
BRANCH  14  15
ATOM     15  C   UNL     1      76.948  79.941  10.097  0.00  0.00    +0.037 A 
ATOM     16  C   UNL     1      78.278  79.970  10.710  0.00  0.00    +0.013 A 
ATOM     17  C   UNL     1      79.279  80.887  10.224  0.00  0.00    +0.005 A 
ATOM     18  C   UNL     1      78.952  81.782   9.117  0.00  0.00    -0.033 A 
ATOM     28  C   UNL     1      77.627  81.729   8.524  0.00  0.00    +0.005 A 
ATOM     29  C   UNL     1      76.643  80.832   8.998  0.00  0.00    +0.013 A 
BRANCH  18  19
ATOM     19  C   UNL     1      79.951  82.808   8.549  0.00  0.00    +0.119 C 
BRANCH  19  20
ATOM     20  N   UNL     1      80.343  83.944   9.435  0.00  0.00    -0.302 NA
ATOM     21  C   UNL     1      79.210  84.961   9.600  0.00  0.00    +0.066 C 
ATOM     22  C   UNL     1      79.630  86.131  10.548  0.00  0.00    -0.064 C 
ATOM     23  N   UNL     1      80.887  86.806   9.996  0.00  0.00    +0.379 N 
ATOM     24  C   UNL     1      81.251  87.943  10.853  0.00  0.00    -0.096 C 
ATOM     25  H   UNL     1      80.638  87.209   8.986  0.00  0.00    -0.082 HD
ATOM     26  C   UNL     1      82.018  85.801   9.825  0.00  0.00    -0.064 C 
ATOM     27  C   UNL     1      81.580  84.627   8.905  0.00  0.00    +0.066 C 
ENDBRANCH  19  20
ENDBRANCH  18  19
ENDBRANCH  14  15
ENDBRANCH  12  13
TORSDOF 6
ENDMDL
