MODEL 1
REMARK VINA RESULT:      -6.7      0.000      0.000
REMARK  Name = C:\Users\Docking\Desktop\test protocol\1iep_ligandH.pdb
REMARK  8 active torsions:
REMARK  status: ('A' for Active; 'I' for Inactive)
REMARK    1  A    between atoms: _5  and  _11
REMARK    2  A    between atoms: _19  and  _21
REMARK    3  A    between atoms: _22  and  _66
REMARK    4  A    between atoms: _27  and  _30
REMARK    5  A    between atoms: _32  and  _33
REMARK    6  A    between atoms: _38  and  _43
REMARK    7  A    between atoms: _43  and  _46
REMARK    8  A    between atoms: _53  and  _55
REMARK                            x       y       z     vdW  Elec       q    Type
REMARK                         _______ _______ _______ _____ _____    ______ ____
ROOT
ATOM     10  C   UNL     1     -75.249  35.119  51.928  0.00  0.00    +0.038 A 
ATOM     11  C   UNL     1     -74.810  36.132  51.037  0.00  0.00    +0.047 A 
ATOM     12  C   UNL     1     -75.752  36.857  50.199  0.00  0.00    +0.035 A 
ATOM     32  C   UNL     1     -77.136  36.526  50.296  0.00  0.00    +0.024 A 
ATOM     33  C   UNL     1     -77.599  35.499  51.195  0.00  0.00    +0.007 A 
ATOM     34  C   UNL     1     -76.674  34.779  52.023  0.00  0.00    -0.029 A 
ATOM     35  C   UNL     1     -77.226  33.683  52.964  0.00  0.00    +0.045 C 
ENDROOT
BRANCH  10   9
ATOM      4  C   UNL     1     -72.436  34.795  55.804  0.00  0.00    +0.077 A 
ATOM      5  C   UNL     1     -72.872  36.068  56.300  0.00  0.00    +0.048 A 
ATOM      6  C   UNL     1     -73.816  36.778  55.524  0.00  0.00    +0.116 A 
ATOM      7  N   UNL     1     -74.282  36.245  54.342  0.00  0.00    -0.223 NA
ATOM      8  C   UNL     1     -73.840  35.015  53.892  0.00  0.00    +0.220 A 
ATOM      9  N   UNL     1     -74.301  34.455  52.710  0.00  0.00    -0.283 N 
ATOM     36  H   UNL     1     -73.944  33.549  52.408  0.00  0.00    +0.155 HD
ATOM     37  N   UNL     1     -72.937  34.318  54.613  0.00  0.00    -0.214 NA
BRANCH   4   3
ATOM      1  C   UNL     1     -70.135  31.784  56.774  0.00  0.00    +0.020 A 
ATOM      2  C   UNL     1     -71.100  32.584  56.054  0.00  0.00    +0.013 A 
ATOM      3  C   UNL     1     -71.445  33.924  56.511  0.00  0.00    +0.019 A 
ATOM     38  C   UNL     1     -70.791  34.429  57.709  0.00  0.00    +0.120 A 
ATOM     39  N   UNL     1     -69.868  33.636  58.382  0.00  0.00    -0.263 NA
ATOM     40  C   UNL     1     -69.529  32.344  57.953  0.00  0.00    +0.111 A 
ENDBRANCH   4   3
ENDBRANCH  10   9
BRANCH  12  13
ATOM     13  N   UNL     1     -75.365  37.889  49.270  0.00  0.00    -0.281 N 
ATOM     14  C   UNL     1     -75.496  37.887  47.891  0.00  0.00    +0.248 C 
ATOM     30  O   UNL     1     -75.773  36.900  47.225  0.00  0.00    -0.270 OA
ATOM     31  H   UNL     1     -74.942  38.723  49.678  0.00  0.00    +0.155 HD
BRANCH  14  15
ATOM     15  C   UNL     1     -75.272  39.161  47.142  0.00  0.00    +0.037 A 
ATOM     16  C   UNL     1     -74.295  40.151  47.601  0.00  0.00    +0.013 A 
ATOM     17  C   UNL     1     -74.111  41.379  46.870  0.00  0.00    +0.005 A 
ATOM     18  C   UNL     1     -74.906  41.623  45.669  0.00  0.00    -0.033 A 
ATOM     28  C   UNL     1     -75.865  40.622  45.233  0.00  0.00    +0.005 A 
ATOM     29  C   UNL     1     -76.049  39.417  45.948  0.00  0.00    +0.013 A 
BRANCH  18  19
ATOM     19  C   UNL     1     -74.792  42.915  44.839  0.00  0.00    +0.119 C 
BRANCH  19  20
ATOM     20  N   UNL     1     -73.916  42.875  43.630  0.00  0.00    -0.302 NA
ATOM     21  C   UNL     1     -72.529  43.463  43.905  0.00  0.00    +0.066 C 
ATOM     22  C   UNL     1     -71.619  43.393  42.636  0.00  0.00    -0.064 C 
ATOM     23  N   UNL     1     -72.300  44.130  41.482  0.00  0.00    +0.379 N 
ATOM     24  C   UNL     1     -71.420  44.115  40.304  0.00  0.00    -0.096 C 
ATOM     25  H   UNL     1     -72.433  45.192  41.791  0.00  0.00    -0.082 HD
ATOM     26  C   UNL     1     -73.681  43.553  41.203  0.00  0.00    -0.064 C 
ATOM     27  C   UNL     1     -74.567  43.601  42.478  0.00  0.00    +0.066 C 
ENDBRANCH  19  20
ENDBRANCH  18  19
ENDBRANCH  14  15
ENDBRANCH  12  13
TORSDOF 6
ENDMDL
MODEL 2
REMARK VINA RESULT:      -6.5     30.981     36.752
REMARK  Name = C:\Users\Docking\Desktop\test protocol\1iep_ligandH.pdb
REMARK  8 active torsions:
REMARK  status: ('A' for Active; 'I' for Inactive)
REMARK    1  A    between atoms: _5  and  _11
REMARK    2  A    between atoms: _19  and  _21
REMARK    3  A    between atoms: _22  and  _66
REMARK    4  A    between atoms: _27  and  _30
REMARK    5  A    between atoms: _32  and  _33
REMARK    6  A    between atoms: _38  and  _43
REMARK    7  A    between atoms: _43  and  _46
REMARK    8  A    between atoms: _53  and  _55
REMARK                            x       y       z     vdW  Elec       q    Type
REMARK                         _______ _______ _______ _____ _____    ______ ____
ROOT
ATOM     10  C   UNL     1     -40.509  37.909  69.091  0.00  0.00    +0.038 A 
ATOM     11  C   UNL     1     -41.277  38.078  67.910  0.00  0.00    +0.047 A 
ATOM     12  C   UNL     1     -41.744  36.932  67.146  0.00  0.00    +0.035 A 
ATOM     32  C   UNL     1     -41.413  35.627  67.614  0.00  0.00    +0.024 A 
ATOM     33  C   UNL     1     -40.633  35.437  68.811  0.00  0.00    +0.007 A 
ATOM     34  C   UNL     1     -40.167  36.564  69.568  0.00  0.00    -0.029 A 
ATOM     35  C   UNL     1     -39.328  36.300  70.840  0.00  0.00    +0.045 C 
ENDROOT
BRANCH  10   9
ATOM      4  C   UNL     1     -37.349  41.421  69.938  0.00  0.00    +0.077 A 
ATOM      5  C   UNL     1     -36.451  40.937  68.929  0.00  0.00    +0.048 A 
ATOM      6  C   UNL     1     -36.836  39.777  68.220  0.00  0.00    +0.116 A 
ATOM      7  N   UNL     1     -38.033  39.157  68.506  0.00  0.00    -0.223 NA
ATOM      8  C   UNL     1     -38.875  39.648  69.487  0.00  0.00    +0.220 A 
ATOM      9  N   UNL     1     -40.086  39.044  69.786  0.00  0.00    -0.283 N 
ATOM     36  H   UNL     1     -40.676  39.433  70.521  0.00  0.00    +0.155 HD
ATOM     37  N   UNL     1     -38.529  40.753  70.179  0.00  0.00    -0.214 NA
BRANCH   4   3
ATOM      1  C   UNL     1     -37.568  44.158  72.724  0.00  0.00    +0.020 A 
ATOM      2  C   UNL     1     -37.865  42.972  71.955  0.00  0.00    +0.013 A 
ATOM      3  C   UNL     1     -37.084  42.636  70.771  0.00  0.00    +0.019 A 
ATOM     38  C   UNL     1     -35.999  43.528  70.391  0.00  0.00    +0.120 A 
ATOM     39  N   UNL     1     -35.736  44.664  71.151  0.00  0.00    -0.263 NA
ATOM     40  C   UNL     1     -36.483  44.998  72.290  0.00  0.00    +0.111 A 
ENDBRANCH   4   3
ENDBRANCH  10   9
BRANCH  12  13
ATOM     13  N   UNL     1     -42.520  37.043  65.935  0.00  0.00    -0.281 N 
ATOM     14  C   UNL     1     -42.174  37.684  64.757  0.00  0.00    +0.248 C 
ATOM     30  O   UNL     1     -41.227  38.448  64.639  0.00  0.00    -0.270 OA
ATOM     31  H   UNL     1     -43.435  36.593  65.949  0.00  0.00    +0.155 HD
BRANCH  14  15
ATOM     15  C   UNL     1     -43.009  37.456  63.539  0.00  0.00    +0.037 A 
ATOM     16  C   UNL     1     -43.038  38.430  62.445  0.00  0.00    +0.013 A 
ATOM     17  C   UNL     1     -43.866  38.194  61.288  0.00  0.00    +0.005 A 
ATOM     18  C   UNL     1     -44.670  36.976  61.220  0.00  0.00    -0.033 A 
ATOM     28  C   UNL     1     -44.618  36.024  62.317  0.00  0.00    +0.005 A 
ATOM     29  C   UNL     1     -43.809  36.253  63.452  0.00  0.00    +0.013 A 
BRANCH  18  19
ATOM     19  C   UNL     1     -45.597  36.652  60.033  0.00  0.00    +0.119 C 
BRANCH  19  20
ATOM     20  N   UNL     1     -45.636  37.633  58.908  0.00  0.00    -0.302 NA
ATOM     21  C   UNL     1     -47.047  37.795  58.336  0.00  0.00    +0.066 C 
ATOM     22  C   UNL     1     -47.074  38.842  57.175  0.00  0.00    -0.064 C 
ATOM     23  N   UNL     1     -46.093  38.413  56.083  0.00  0.00    +0.379 N 
ATOM     24  C   UNL     1     -46.158  39.364  54.963  0.00  0.00    -0.096 C 
ATOM     25  H   UNL     1     -46.424  37.419  55.702  0.00  0.00    -0.082 HD
ATOM     26  C   UNL     1     -44.687  38.247  56.644  0.00  0.00    -0.064 C 
ATOM     27  C   UNL     1     -44.677  37.227  57.816  0.00  0.00    +0.066 C 
ENDBRANCH  19  20
ENDBRANCH  18  19
ENDBRANCH  14  15
ENDBRANCH  12  13
TORSDOF 6
ENDMDL
MODEL 3
REMARK VINA RESULT:      -6.1     30.821     37.354
REMARK  Name = C:\Users\Docking\Desktop\test protocol\1iep_ligandH.pdb
REMARK  8 active torsions:
REMARK  status: ('A' for Active; 'I' for Inactive)
REMARK    1  A    between atoms: _5  and  _11
REMARK    2  A    between atoms: _19  and  _21
REMARK    3  A    between atoms: _22  and  _66
REMARK    4  A    between atoms: _27  and  _30
REMARK    5  A    between atoms: _32  and  _33
REMARK    6  A    between atoms: _38  and  _43
REMARK    7  A    between atoms: _43  and  _46
REMARK    8  A    between atoms: _53  and  _55
REMARK                            x       y       z     vdW  Elec       q    Type
REMARK                         _______ _______ _______ _____ _____    ______ ____
ROOT
ATOM     10  C   UNL     1     -40.158  37.910  69.494  0.00  0.00    +0.038 A 
ATOM     11  C   UNL     1     -41.043  37.939  68.386  0.00  0.00    +0.047 A 
ATOM     12  C   UNL     1     -41.472  36.712  67.734  0.00  0.00    +0.035 A 
ATOM     32  C   UNL     1     -40.982  35.472  68.238  0.00  0.00    +0.024 A 
ATOM     33  C   UNL     1     -40.081  35.424  69.362  0.00  0.00    +0.007 A 
ATOM     34  C   UNL     1     -39.652  36.632  70.008  0.00  0.00    -0.029 A 
ATOM     35  C   UNL     1     -38.679  36.521  71.205  0.00  0.00    +0.045 C 
ENDROOT
BRANCH  10   9
ATOM      4  C   UNL     1     -37.196  41.663  69.922  0.00  0.00    +0.077 A 
ATOM      5  C   UNL     1     -36.316  41.160  68.907  0.00  0.00    +0.048 A 
ATOM      6  C   UNL     1     -36.658  39.928  68.304  0.00  0.00    +0.116 A 
ATOM      7  N   UNL     1     -37.797  39.259  68.695  0.00  0.00    -0.223 NA
ATOM      8  C   UNL     1     -38.623  39.771  69.678  0.00  0.00    +0.220 A 
ATOM      9  N   UNL     1     -39.778  39.119  70.082  0.00  0.00    -0.283 N 
ATOM     36  H   UNL     1     -40.357  39.526  70.816  0.00  0.00    +0.155 HD
ATOM     37  N   UNL     1     -38.318  40.945  70.270  0.00  0.00    -0.214 NA
BRANCH   4   3
ATOM      1  C   UNL     1     -37.340  44.515  72.595  0.00  0.00    +0.020 A 
ATOM      2  C   UNL     1     -37.590  43.254  71.935  0.00  0.00    +0.013 A 
ATOM      3  C   UNL     1     -36.972  42.952  70.649  0.00  0.00    +0.019 A 
ATOM     38  C   UNL     1     -36.101  43.955  70.055  0.00  0.00    +0.120 A 
ATOM     39  N   UNL     1     -35.880  45.160  70.714  0.00  0.00    -0.263 NA
ATOM     40  C   UNL     1     -36.470  45.462  71.951  0.00  0.00    +0.111 A 
ENDBRANCH   4   3
ENDBRANCH  10   9
BRANCH  12  13
ATOM     13  N   UNL     1     -42.363  36.679  66.600  0.00  0.00    -0.281 N 
ATOM     14  C   UNL     1     -42.075  36.988  65.281  0.00  0.00    +0.248 C 
ATOM     30  O   UNL     1     -41.054  37.549  64.910  0.00  0.00    -0.270 OA
ATOM     31  H   UNL     1     -43.323  36.394  66.794  0.00  0.00    +0.155 HD
BRANCH  14  15
ATOM     15  C   UNL     1     -43.070  36.638  64.223  0.00  0.00    +0.037 A 
ATOM     16  C   UNL     1     -43.182  37.427  62.993  0.00  0.00    +0.013 A 
ATOM     17  C   UNL     1     -44.163  37.077  61.996  0.00  0.00    +0.005 A 
ATOM     18  C   UNL     1     -45.039  35.930  62.225  0.00  0.00    -0.033 A 
ATOM     28  C   UNL     1     -44.902  35.161  63.451  0.00  0.00    +0.005 A 
ATOM     29  C   UNL     1     -43.943  35.502  64.431  0.00  0.00    +0.013 A 
BRANCH  18  19
ATOM     19  C   UNL     1     -46.127  35.497  61.225  0.00  0.00    +0.119 C 
BRANCH  19  20
ATOM     20  N   UNL     1     -46.577  34.074  61.278  0.00  0.00    -0.302 NA
ATOM     21  C   UNL     1     -46.537  33.407  59.900  0.00  0.00    +0.066 C 
ATOM     22  C   UNL     1     -46.990  31.912  59.978  0.00  0.00    -0.064 C 
ATOM     23  N   UNL     1     -48.396  31.838  60.575  0.00  0.00    +0.379 N 
ATOM     24  C   UNL     1     -48.847  30.439  60.595  0.00  0.00    -0.096 C 
ATOM     25  H   UNL     1     -49.080  32.405  59.900  0.00  0.00    -0.082 HD
ATOM     26  C   UNL     1     -48.445  32.502  61.944  0.00  0.00    -0.064 C 
ATOM     27  C   UNL     1     -47.966  33.978  61.861  0.00  0.00    +0.066 C 
ENDBRANCH  19  20
ENDBRANCH  18  19
ENDBRANCH  14  15
ENDBRANCH  12  13
TORSDOF 6
ENDMDL
MODEL 4
REMARK VINA RESULT:      -5.9     13.071     16.994
REMARK  Name = C:\Users\Docking\Desktop\test protocol\1iep_ligandH.pdb
REMARK  8 active torsions:
REMARK  status: ('A' for Active; 'I' for Inactive)
REMARK    1  A    between atoms: _5  and  _11
REMARK    2  A    between atoms: _19  and  _21
REMARK    3  A    between atoms: _22  and  _66
REMARK    4  A    between atoms: _27  and  _30
REMARK    5  A    between atoms: _32  and  _33
REMARK    6  A    between atoms: _38  and  _43
REMARK    7  A    between atoms: _43  and  _46
REMARK    8  A    between atoms: _53  and  _55
REMARK                            x       y       z     vdW  Elec       q    Type
REMARK                         _______ _______ _______ _____ _____    ______ ____
ROOT
ATOM     10  C   UNL     1     -57.804  37.202  54.819  0.00  0.00    +0.038 A 
ATOM     11  C   UNL     1     -58.889  36.468  54.275  0.00  0.00    +0.047 A 
ATOM     12  C   UNL     1     -59.736  37.034  53.237  0.00  0.00    +0.035 A 
ATOM     32  C   UNL     1     -59.448  38.350  52.774  0.00  0.00    +0.024 A 
ATOM     33  C   UNL     1     -58.351  39.112  53.316  0.00  0.00    +0.007 A 
ATOM     34  C   UNL     1     -57.513  38.560  54.342  0.00  0.00    -0.029 A 
ATOM     35  C   UNL     1     -56.354  39.424  54.891  0.00  0.00    +0.045 C 
ENDROOT
BRANCH  10   9
ATOM      4  C   UNL     1     -54.226  34.340  56.248  0.00  0.00    +0.077 A 
ATOM      5  C   UNL     1     -53.903  33.973  54.900  0.00  0.00    +0.048 A 
ATOM      6  C   UNL     1     -54.686  34.537  53.868  0.00  0.00    +0.116 A 
ATOM      7  N   UNL     1     -55.713  35.403  54.173  0.00  0.00    -0.223 NA
ATOM      8  C   UNL     1     -56.000  35.735  55.484  0.00  0.00    +0.220 A 
ATOM      9  N   UNL     1     -57.023  36.610  55.814  0.00  0.00    -0.283 N 
ATOM     36  H   UNL     1     -57.208  36.824  56.794  0.00  0.00    +0.155 HD
ATOM     37  N   UNL     1     -55.268  35.209  56.488  0.00  0.00    -0.214 NA
BRANCH   4   3
ATOM      1  C   UNL     1     -51.380  33.145  58.650  0.00  0.00    +0.020 A 
ATOM      2  C   UNL     1     -52.044  33.640  57.466  0.00  0.00    +0.013 A 
ATOM      3  C   UNL     1     -53.489  33.830  57.447  0.00  0.00    +0.019 A 
ATOM     38  C   UNL     1     -54.238  33.509  58.652  0.00  0.00    +0.120 A 
ATOM     39  N   UNL     1     -53.572  33.033  59.777  0.00  0.00    -0.263 NA
ATOM     40  C   UNL     1     -52.182  32.844  59.806  0.00  0.00    +0.111 A 
ENDBRANCH   4   3
ENDBRANCH  10   9
BRANCH  12  13
ATOM     13  N   UNL     1     -60.856  36.338  52.653  0.00  0.00    -0.281 N 
ATOM     14  C   UNL     1     -60.837  35.387  51.646  0.00  0.00    +0.248 C 
ATOM     30  O   UNL     1     -59.867  35.145  50.943  0.00  0.00    -0.270 OA
ATOM     31  H   UNL     1     -61.775  36.575  53.028  0.00  0.00    +0.155 HD
BRANCH  14  15
ATOM     15  C   UNL     1     -62.078  34.602  51.370  0.00  0.00    +0.037 A 
ATOM     16  C   UNL     1     -63.080  34.373  52.415  0.00  0.00    +0.013 A 
ATOM     17  C   UNL     1     -64.261  33.598  52.127  0.00  0.00    +0.005 A 
ATOM     18  C   UNL     1     -64.446  33.046  50.787  0.00  0.00    -0.033 A 
ATOM     28  C   UNL     1     -63.439  33.293  49.768  0.00  0.00    +0.005 A 
ATOM     29  C   UNL     1     -62.280  34.052  50.047  0.00  0.00    +0.013 A 
BRANCH  18  19
ATOM     19  C   UNL     1     -65.665  32.189  50.396  0.00  0.00    +0.119 C 
BRANCH  19  20
ATOM     20  N   UNL     1     -65.628  31.514  49.065  0.00  0.00    -0.302 NA
ATOM     21  C   UNL     1     -66.896  31.782  48.249  0.00  0.00    +0.066 C 
ATOM     22  C   UNL     1     -66.831  31.087  46.851  0.00  0.00    -0.064 C 
ATOM     23  N   UNL     1     -66.616  29.584  47.040  0.00  0.00    +0.379 N 
ATOM     24  C   UNL     1     -66.612  28.919  45.729  0.00  0.00    -0.096 C 
ATOM     25  H   UNL     1     -67.484  29.189  47.617  0.00  0.00    -0.082 HD
ATOM     26  C   UNL     1     -65.358  29.309  47.853  0.00  0.00    -0.064 C 
ATOM     27  C   UNL     1     -65.421  30.029  49.229  0.00  0.00    +0.066 C 
ENDBRANCH  19  20
ENDBRANCH  18  19
ENDBRANCH  14  15
ENDBRANCH  12  13
TORSDOF 6
ENDMDL
MODEL 5
REMARK VINA RESULT:      -5.9      2.032      2.921
REMARK  Name = C:\Users\Docking\Desktop\test protocol\1iep_ligandH.pdb
REMARK  8 active torsions:
REMARK  status: ('A' for Active; 'I' for Inactive)
REMARK    1  A    between atoms: _5  and  _11
REMARK    2  A    between atoms: _19  and  _21
REMARK    3  A    between atoms: _22  and  _66
REMARK    4  A    between atoms: _27  and  _30
REMARK    5  A    between atoms: _32  and  _33
REMARK    6  A    between atoms: _38  and  _43
REMARK    7  A    between atoms: _43  and  _46
REMARK    8  A    between atoms: _53  and  _55
REMARK                            x       y       z     vdW  Elec       q    Type
REMARK                         _______ _______ _______ _____ _____    ______ ____
ROOT
ATOM     10  C   UNL     1     -75.360  36.814  53.199  0.00  0.00    +0.038 A 
ATOM     11  C   UNL     1     -74.916  37.700  52.184  0.00  0.00    +0.047 A 
ATOM     12  C   UNL     1     -75.781  38.064  51.073  0.00  0.00    +0.035 A 
ATOM     32  C   UNL     1     -77.094  37.509  51.028  0.00  0.00    +0.024 A 
ATOM     33  C   UNL     1     -77.560  36.606  52.051  0.00  0.00    +0.007 A 
ATOM     34  C   UNL     1     -76.711  36.241  53.148  0.00  0.00    -0.029 A 
ATOM     35  C   UNL     1     -77.261  35.264  54.212  0.00  0.00    +0.045 C 
ENDROOT
BRANCH  10   9
ATOM      4  C   UNL     1     -72.175  33.920  55.325  0.00  0.00    +0.077 A 
ATOM      5  C   UNL     1     -72.278  32.942  54.281  0.00  0.00    +0.048 A 
ATOM      6  C   UNL     1     -73.167  33.218  53.218  0.00  0.00    +0.116 A 
ATOM      7  N   UNL     1     -73.894  34.389  53.210  0.00  0.00    -0.223 NA
ATOM      8  C   UNL     1     -73.772  35.310  54.234  0.00  0.00    +0.220 A 
ATOM      9  N   UNL     1     -74.488  36.498  54.243  0.00  0.00    -0.283 N 
ATOM     36  H   UNL     1     -74.376  37.148  55.021  0.00  0.00    +0.155 HD
ATOM     37  N   UNL     1     -72.931  35.069  55.261  0.00  0.00    -0.214 NA
BRANCH   4   3
ATOM      1  C   UNL     1     -70.126  34.671  58.572  0.00  0.00    +0.020 A 
ATOM      2  C   UNL     1     -71.001  34.866  57.439  0.00  0.00    +0.013 A 
ATOM      3  C   UNL     1     -71.277  33.773  56.514  0.00  0.00    +0.019 A 
ATOM     38  C   UNL     1     -70.647  32.486  56.767  0.00  0.00    +0.120 A 
ATOM     39  N   UNL     1     -69.807  32.329  57.866  0.00  0.00    -0.263 NA
ATOM     40  C   UNL     1     -69.534  33.373  58.761  0.00  0.00    +0.111 A 
ENDBRANCH   4   3
ENDBRANCH  10   9
BRANCH  12  13
ATOM     13  N   UNL     1     -75.383  38.953  50.009  0.00  0.00    -0.281 N 
ATOM     14  C   UNL     1     -75.048  38.624  48.706  0.00  0.00    +0.248 C 
ATOM     30  O   UNL     1     -74.832  37.487  48.314  0.00  0.00    -0.270 OA
ATOM     31  H   UNL     1     -75.344  39.944  50.246  0.00  0.00    +0.155 HD
BRANCH  14  15
ATOM     15  C   UNL     1     -74.919  39.718  47.696  0.00  0.00    +0.037 A 
ATOM     16  C   UNL     1     -75.697  39.701  46.454  0.00  0.00    +0.013 A 
ATOM     17  C   UNL     1     -75.541  40.760  45.489  0.00  0.00    +0.005 A 
ATOM     18  C   UNL     1     -74.604  41.847  45.763  0.00  0.00    -0.033 A 
ATOM     28  C   UNL     1     -73.850  41.842  47.005  0.00  0.00    +0.005 A 
ATOM     29  C   UNL     1     -73.999  40.805  47.953  0.00  0.00    +0.013 A 
BRANCH  18  19
ATOM     19  C   UNL     1     -74.359  43.007  44.780  0.00  0.00    +0.119 C 
BRANCH  19  20
ATOM     20  N   UNL     1     -74.757  44.376  45.225  0.00  0.00    -0.302 NA
ATOM     21  C   UNL     1     -75.496  45.145  44.126  0.00  0.00    +0.066 C 
ATOM     22  C   UNL     1     -75.925  46.566  44.616  0.00  0.00    -0.064 C 
ATOM     23  N   UNL     1     -74.688  47.338  45.079  0.00  0.00    +0.379 N 
ATOM     24  C   UNL     1     -75.081  48.695  45.486  0.00  0.00    -0.096 C 
ATOM     25  H   UNL     1     -74.002  47.432  44.206  0.00  0.00    -0.082 HD
ATOM     26  C   UNL     1     -73.946  46.579  46.170  0.00  0.00    -0.064 C 
ATOM     27  C   UNL     1     -73.550  45.157  45.683  0.00  0.00    +0.066 C 
ENDBRANCH  19  20
ENDBRANCH  18  19
ENDBRANCH  14  15
ENDBRANCH  12  13
TORSDOF 6
ENDMDL
