MODEL 1
REMARK VINA RESULT:      -8.2      0.000      0.000
REMARK  Name = C:\Users\Docking\Desktop\test protocol\1iep_ligandH.pdb
REMARK  8 active torsions:
REMARK  status: ('A' for Active; 'I' for Inactive)
REMARK    1  A    between atoms: _5  and  _11
REMARK    2  A    between atoms: _19  and  _21
REMARK    3  A    between atoms: _22  and  _66
REMARK    4  A    between atoms: _27  and  _30
REMARK    5  A    between atoms: _32  and  _33
REMARK    6  A    between atoms: _38  and  _43
REMARK    7  A    between atoms: _43  and  _46
REMARK    8  A    between atoms: _53  and  _55
REMARK                            x       y       z     vdW  Elec       q    Type
REMARK                         _______ _______ _______ _____ _____    ______ ____
ROOT
ATOM     10  C   UNL     1      -8.046  15.107  -5.611  0.00  0.00    +0.038 A 
ATOM     11  C   UNL     1      -7.170  15.098  -6.727  0.00  0.00    +0.047 A 
ATOM     12  C   UNL     1      -7.414  15.948  -7.881  0.00  0.00    +0.035 A 
ATOM     32  C   UNL     1      -8.558  16.798  -7.865  0.00  0.00    +0.024 A 
ATOM     33  C   UNL     1      -9.459  16.820  -6.740  0.00  0.00    +0.007 A 
ATOM     34  C   UNL     1      -9.225  15.981  -5.599  0.00  0.00    -0.029 A 
ATOM     35  C   UNL     1     -10.228  16.040  -4.423  0.00  0.00    +0.045 C 
ENDROOT
BRANCH  10   9
ATOM      4  C   UNL     1      -8.823  11.153  -3.004  0.00  0.00    +0.077 A 
ATOM      5  C   UNL     1      -9.900  10.732  -3.854  0.00  0.00    +0.048 A 
ATOM      6  C   UNL     1     -10.226  11.565  -4.948  0.00  0.00    +0.116 A 
ATOM      7  N   UNL     1      -9.522  12.730  -5.165  0.00  0.00    -0.223 NA
ATOM      8  C   UNL     1      -8.491  13.107  -4.325  0.00  0.00    +0.220 A 
ATOM      9  N   UNL     1      -7.764  14.270  -4.529  0.00  0.00    -0.283 N 
ATOM     36  H   UNL     1      -7.016  14.517  -3.882  0.00  0.00    +0.155 HD
ATOM     37  N   UNL     1      -8.160  12.329  -3.273  0.00  0.00    -0.214 NA
BRANCH   4   3
ATOM      1  C   UNL     1      -8.698   9.388   0.485  0.00  0.00    +0.020 A 
ATOM      2  C   UNL     1      -9.196  10.144  -0.641  0.00  0.00    +0.013 A 
ATOM      3  C   UNL     1      -8.358  10.378  -1.811  0.00  0.00    +0.019 A 
ATOM     38  C   UNL     1      -7.010   9.829  -1.808  0.00  0.00    +0.120 A 
ATOM     39  N   UNL     1      -6.557   9.106  -0.709  0.00  0.00    -0.263 NA
ATOM     40  C   UNL     1      -7.354   8.876   0.423  0.00  0.00    +0.111 A 
ENDBRANCH   4   3
ENDBRANCH  10   9
BRANCH  12  13
ATOM     13  N   UNL     1      -6.564  15.976  -9.046  0.00  0.00    -0.281 N 
ATOM     14  C   UNL     1      -5.349  16.623  -9.199  0.00  0.00    +0.248 C 
ATOM     30  O   UNL     1      -4.909  17.458  -8.423  0.00  0.00    -0.270 OA
ATOM     31  H   UNL     1      -6.899  15.454  -9.856  0.00  0.00    +0.155 HD
BRANCH  14  15
ATOM     15  C   UNL     1      -4.509  16.309 -10.394  0.00  0.00    +0.037 A 
ATOM     16  C   UNL     1      -4.697  17.016 -11.663  0.00  0.00    +0.013 A 
ATOM     17  C   UNL     1      -3.884  16.681 -12.806  0.00  0.00    +0.005 A 
ATOM     18  C   UNL     1      -2.874  15.634 -12.683  0.00  0.00    -0.033 A 
ATOM     28  C   UNL     1      -2.704  14.951 -11.411  0.00  0.00    +0.005 A 
ATOM     29  C   UNL     1      -3.500  15.276 -10.289  0.00  0.00    +0.013 A 
BRANCH  18  19
ATOM     19  C   UNL     1      -1.976  15.196 -13.855  0.00  0.00    +0.119 C 
BRANCH  19  20
ATOM     20  N   UNL     1      -2.361  13.951 -14.584  0.00  0.00    -0.302 NA
ATOM     21  C   UNL     1      -1.512  12.750 -14.158  0.00  0.00    +0.066 C 
ATOM     22  C   UNL     1      -1.943  11.451 -14.913  0.00  0.00    -0.064 C 
ATOM     23  N   UNL     1      -1.836  11.682 -16.421  0.00  0.00    +0.379 N 
ATOM     24  C   UNL     1      -2.185  10.444 -17.133  0.00  0.00    -0.096 C 
ATOM     25  H   UNL     1      -0.771  11.916 -16.652  0.00  0.00    -0.082 HD
ATOM     26  C   UNL     1      -2.675  12.876 -16.853  0.00  0.00    -0.064 C 
ATOM     27  C   UNL     1      -2.258  14.155 -16.075  0.00  0.00    +0.066 C 
ENDBRANCH  19  20
ENDBRANCH  18  19
ENDBRANCH  14  15
ENDBRANCH  12  13
TORSDOF 6
ENDMDL
MODEL 2
REMARK VINA RESULT:      -8.1      9.761     14.623
REMARK  Name = C:\Users\Docking\Desktop\test protocol\1iep_ligandH.pdb
REMARK  8 active torsions:
REMARK  status: ('A' for Active; 'I' for Inactive)
REMARK    1  A    between atoms: _5  and  _11
REMARK    2  A    between atoms: _19  and  _21
REMARK    3  A    between atoms: _22  and  _66
REMARK    4  A    between atoms: _27  and  _30
REMARK    5  A    between atoms: _32  and  _33
REMARK    6  A    between atoms: _38  and  _43
REMARK    7  A    between atoms: _43  and  _46
REMARK    8  A    between atoms: _53  and  _55
REMARK                            x       y       z     vdW  Elec       q    Type
REMARK                         _______ _______ _______ _____ _____    ______ ____
ROOT
ATOM     10  C   UNL     1     -15.202  20.482   2.664  0.00  0.00    +0.038 A 
ATOM     11  C   UNL     1     -14.347  19.731   1.818  0.00  0.00    +0.047 A 
ATOM     12  C   UNL     1     -13.451  18.720   2.360  0.00  0.00    +0.035 A 
ATOM     32  C   UNL     1     -13.455  18.499   3.768  0.00  0.00    +0.024 A 
ATOM     33  C   UNL     1     -14.318  19.254   4.642  0.00  0.00    +0.007 A 
ATOM     34  C   UNL     1     -15.201  20.254   4.114  0.00  0.00    -0.029 A 
ATOM     35  C   UNL     1     -16.099  21.038   5.099  0.00  0.00    +0.045 C 
ENDROOT
BRANCH  10   9
ATOM      4  C   UNL     1     -16.311  25.019   1.556  0.00  0.00    +0.077 A 
ATOM      5  C   UNL     1     -15.132  25.526   2.197  0.00  0.00    +0.048 A 
ATOM      6  C   UNL     1     -14.270  24.587   2.807  0.00  0.00    +0.116 A 
ATOM      7  N   UNL     1     -14.574  23.243   2.771  0.00  0.00    -0.223 NA
ATOM      8  C   UNL     1     -15.720  22.788   2.145  0.00  0.00    +0.220 A 
ATOM      9  N   UNL     1     -16.041  21.440   2.090  0.00  0.00    -0.283 N 
ATOM     36  H   UNL     1     -16.900  21.145   1.626  0.00  0.00    +0.155 HD
ATOM     37  N   UNL     1     -16.560  23.665   1.558  0.00  0.00    -0.214 NA
BRANCH   4   3
ATOM      1  C   UNL     1     -18.782  27.935   0.724  0.00  0.00    +0.020 A 
ATOM      2  C   UNL     1     -17.809  27.135   1.432  0.00  0.00    +0.013 A 
ATOM      3  C   UNL     1     -17.318  25.885   0.865  0.00  0.00    +0.019 A 
ATOM     38  C   UNL     1     -17.834  25.471  -0.431  0.00  0.00    +0.120 A 
ATOM     39  N   UNL     1     -18.771  26.261  -1.089  0.00  0.00    -0.263 NA
ATOM     40  C   UNL     1     -19.252  27.465  -0.552  0.00  0.00    +0.111 A 
ENDBRANCH   4   3
ENDBRANCH  10   9
BRANCH  12  13
ATOM     13  N   UNL     1     -12.555  17.932   1.551  0.00  0.00    -0.281 N 
ATOM     14  C   UNL     1     -12.323  16.568   1.619  0.00  0.00    +0.248 C 
ATOM     30  O   UNL     1     -12.696  15.848   2.533  0.00  0.00    -0.270 OA
ATOM     31  H   UNL     1     -12.027  18.442   0.843  0.00  0.00    +0.155 HD
BRANCH  14  15
ATOM     15  C   UNL     1     -11.553  15.911   0.519  0.00  0.00    +0.037 A 
ATOM     16  C   UNL     1     -11.897  14.567   0.049  0.00  0.00    +0.013 A 
ATOM     17  C   UNL     1     -11.127  13.949  -1.002  0.00  0.00    +0.005 A 
ATOM     18  C   UNL     1     -10.006  14.677  -1.591  0.00  0.00    -0.033 A 
ATOM     28  C   UNL     1      -9.690  16.012  -1.109  0.00  0.00    +0.005 A 
ATOM     29  C   UNL     1     -10.441  16.620  -0.078  0.00  0.00    +0.013 A 
BRANCH  18  19
ATOM     19  C   UNL     1      -9.116  14.087  -2.701  0.00  0.00    +0.119 C 
BRANCH  19  20
ATOM     20  N   UNL     1      -8.844  14.950  -3.889  0.00  0.00    -0.302 NA
ATOM     21  C   UNL     1     -10.126  15.304  -4.648  0.00  0.00    +0.066 C 
ATOM     22  C   UNL     1      -9.825  16.226  -5.875  0.00  0.00    -0.064 C 
ATOM     23  N   UNL     1      -8.824  15.530  -6.799  0.00  0.00    +0.379 N 
ATOM     24  C   UNL     1      -8.583  16.368  -7.982  0.00  0.00    -0.096 C 
ATOM     25  H   UNL     1      -9.290  14.579  -7.147  0.00  0.00    -0.082 HD
ATOM     26  C   UNL     1      -7.547  15.172  -6.051  0.00  0.00    -0.064 C 
ATOM     27  C   UNL     1      -7.861  14.280  -4.817  0.00  0.00    +0.066 C 
ENDBRANCH  19  20
ENDBRANCH  18  19
ENDBRANCH  14  15
ENDBRANCH  12  13
TORSDOF 6
ENDMDL
MODEL 3
REMARK VINA RESULT:      -8.0      5.399     10.250
REMARK  Name = C:\Users\Docking\Desktop\test protocol\1iep_ligandH.pdb
REMARK  8 active torsions:
REMARK  status: ('A' for Active; 'I' for Inactive)
REMARK    1  A    between atoms: _5  and  _11
REMARK    2  A    between atoms: _19  and  _21
REMARK    3  A    between atoms: _22  and  _66
REMARK    4  A    between atoms: _27  and  _30
REMARK    5  A    between atoms: _32  and  _33
REMARK    6  A    between atoms: _38  and  _43
REMARK    7  A    between atoms: _43  and  _46
REMARK    8  A    between atoms: _53  and  _55
REMARK                            x       y       z     vdW  Elec       q    Type
REMARK                         _______ _______ _______ _____ _____    ______ ____
ROOT
ATOM     10  C   UNL     1      -5.863   6.752  -0.887  0.00  0.00    +0.038 A 
ATOM     11  C   UNL     1      -6.085   7.821  -1.792  0.00  0.00    +0.047 A 
ATOM     12  C   UNL     1      -7.259   8.672  -1.677  0.00  0.00    +0.035 A 
ATOM     32  C   UNL     1      -8.186   8.407  -0.627  0.00  0.00    +0.024 A 
ATOM     33  C   UNL     1      -7.976   7.323   0.301  0.00  0.00    +0.007 A 
ATOM     34  C   UNL     1      -6.821   6.479   0.191  0.00  0.00    -0.029 A 
ATOM     35  C   UNL     1      -6.651   5.328   1.210  0.00  0.00    +0.045 C 
ENDROOT
BRANCH  10   9
ATOM      4  C   UNL     1      -3.515   3.026  -2.795  0.00  0.00    +0.077 A 
ATOM      5  C   UNL     1      -4.673   2.592  -3.521  0.00  0.00    +0.048 A 
ATOM      6  C   UNL     1      -5.855   3.351  -3.371  0.00  0.00    +0.116 A 
ATOM      7  N   UNL     1      -5.867   4.460  -2.553  0.00  0.00    -0.223 NA
ATOM      8  C   UNL     1      -4.732   4.850  -1.865  0.00  0.00    +0.220 A 
ATOM      9  N   UNL     1      -4.719   5.966  -1.043  0.00  0.00    -0.283 N 
ATOM     36  H   UNL     1      -3.864   6.217  -0.547  0.00  0.00    +0.155 HD
ATOM     37  N   UNL     1      -3.591   4.141  -1.991  0.00  0.00    -0.214 NA
BRANCH   4   3
ATOM      1  C   UNL     1      -0.292   1.237  -4.104  0.00  0.00    +0.020 A 
ATOM      2  C   UNL     1      -1.573   1.904  -4.103  0.00  0.00    +0.013 A 
ATOM      3  C   UNL     1      -2.190   2.330  -2.853  0.00  0.00    +0.019 A 
ATOM     38  C   UNL     1      -1.479   2.064  -1.612  0.00  0.00    +0.120 A 
ATOM     39  N   UNL     1      -0.247   1.417  -1.644  0.00  0.00    -0.263 NA
ATOM     40  C   UNL     1       0.356   1.002  -2.840  0.00  0.00    +0.111 A 
ENDBRANCH   4   3
ENDBRANCH  10   9
BRANCH  12  13
ATOM     13  N   UNL     1      -7.541   9.768  -2.571  0.00  0.00    -0.281 N 
ATOM     14  C   UNL     1      -8.690   9.987  -3.314  0.00  0.00    +0.248 C 
ATOM     30  O   UNL     1      -9.571   9.157  -3.486  0.00  0.00    -0.270 OA
ATOM     31  H   UNL     1      -6.805  10.467  -2.669  0.00  0.00    +0.155 HD
BRANCH  14  15
ATOM     15  C   UNL     1      -8.882  11.315  -3.972  0.00  0.00    +0.037 A 
ATOM     16  C   UNL     1     -10.220  11.814  -4.299  0.00  0.00    +0.013 A 
ATOM     17  C   UNL     1     -10.377  13.091  -4.949  0.00  0.00    +0.005 A 
ATOM     18  C   UNL     1      -9.190  13.879  -5.275  0.00  0.00    -0.033 A 
ATOM     28  C   UNL     1      -7.875  13.362  -4.934  0.00  0.00    +0.005 A 
ATOM     29  C   UNL     1      -7.718  12.110  -4.298  0.00  0.00    +0.013 A 
BRANCH  18  19
ATOM     19  C   UNL     1      -9.262  15.243  -5.987  0.00  0.00    +0.119 C 
BRANCH  19  20
ATOM     20  N   UNL     1      -8.087  15.642  -6.818  0.00  0.00    -0.302 NA
ATOM     21  C   UNL     1      -7.396  16.895  -6.271  0.00  0.00    +0.066 C 
ATOM     22  C   UNL     1      -6.156  17.286  -7.138  0.00  0.00    -0.064 C 
ATOM     23  N   UNL     1      -6.597  17.500  -8.587  0.00  0.00    +0.379 N 
ATOM     24  C   UNL     1      -5.444  17.924  -9.394  0.00  0.00    -0.096 C 
ATOM     25  H   UNL     1      -7.340  18.331  -8.595  0.00  0.00    -0.082 HD
ATOM     26  C   UNL     1      -7.287  16.260  -9.138  0.00  0.00    -0.064 C 
ATOM     27  C   UNL     1      -8.501  15.863  -8.252  0.00  0.00    +0.066 C 
ENDBRANCH  19  20
ENDBRANCH  18  19
ENDBRANCH  14  15
ENDBRANCH  12  13
TORSDOF 6
ENDMDL
MODEL 4
REMARK VINA RESULT:      -8.0      5.773      8.580
REMARK  Name = C:\Users\Docking\Desktop\test protocol\1iep_ligandH.pdb
REMARK  8 active torsions:
REMARK  status: ('A' for Active; 'I' for Inactive)
REMARK    1  A    between atoms: _5  and  _11
REMARK    2  A    between atoms: _19  and  _21
REMARK    3  A    between atoms: _22  and  _66
REMARK    4  A    between atoms: _27  and  _30
REMARK    5  A    between atoms: _32  and  _33
REMARK    6  A    between atoms: _38  and  _43
REMARK    7  A    between atoms: _43  and  _46
REMARK    8  A    between atoms: _53  and  _55
REMARK                            x       y       z     vdW  Elec       q    Type
REMARK                         _______ _______ _______ _____ _____    ______ ____
ROOT
ATOM     10  C   UNL     1     -11.574  14.949  -0.332  0.00  0.00    +0.038 A 
ATOM     11  C   UNL     1     -10.887  15.345  -1.508  0.00  0.00    +0.047 A 
ATOM     12  C   UNL     1      -9.914  14.469  -2.143  0.00  0.00    +0.035 A 
ATOM     32  C   UNL     1      -9.668  13.194  -1.555  0.00  0.00    +0.024 A 
ATOM     33  C   UNL     1     -10.356  12.776  -0.360  0.00  0.00    +0.007 A 
ATOM     34  C   UNL     1     -11.315  13.636   0.273  0.00  0.00    -0.029 A 
ATOM     35  C   UNL     1     -12.018  13.138   1.557  0.00  0.00    +0.045 C 
ENDROOT
BRANCH  10   9
ATOM      4  C   UNL     1     -12.688  18.701   2.445  0.00  0.00    +0.077 A 
ATOM      5  C   UNL     1     -11.318  18.908   2.817  0.00  0.00    +0.048 A 
ATOM      6  C   UNL     1     -10.358  18.023   2.277  0.00  0.00    +0.116 A 
ATOM      7  N   UNL     1     -10.751  17.009   1.430  0.00  0.00    -0.223 NA
ATOM      8  C   UNL     1     -12.080  16.837   1.093  0.00  0.00    +0.220 A 
ATOM      9  N   UNL     1     -12.497  15.829   0.236  0.00  0.00    -0.283 N 
ATOM     36  H   UNL     1     -13.488  15.731   0.017  0.00  0.00    +0.155 HD
ATOM     37  N   UNL     1     -13.016  17.668   1.596  0.00  0.00    -0.214 NA
BRANCH   4   3
ATOM      1  C   UNL     1     -15.932  20.884   2.568  0.00  0.00    +0.020 A 
ATOM      2  C   UNL     1     -14.863  20.062   2.049  0.00  0.00    +0.013 A 
ATOM      3  C   UNL     1     -13.817  19.556   2.930  0.00  0.00    +0.019 A 
ATOM     38  C   UNL     1     -13.884  19.901   4.342  0.00  0.00    +0.120 A 
ATOM     39  N   UNL     1     -14.925  20.695   4.813  0.00  0.00    -0.263 NA
ATOM     40  C   UNL     1     -15.936  21.190   3.974  0.00  0.00    +0.111 A 
ENDBRANCH   4   3
ENDBRANCH  10   9
BRANCH  12  13
ATOM     13  N   UNL     1      -9.181  14.821  -3.334  0.00  0.00    -0.281 N 
ATOM     14  C   UNL     1      -9.516  14.554  -4.651  0.00  0.00    +0.248 C 
ATOM     30  O   UNL     1     -10.398  13.782  -4.997  0.00  0.00    -0.270 OA
ATOM     31  H   UNL     1      -8.307  15.327  -3.187  0.00  0.00    +0.155 HD
BRANCH  14  15
ATOM     15  C   UNL     1      -8.753  15.233  -5.742  0.00  0.00    +0.037 A 
ATOM     16  C   UNL     1      -9.319  16.372  -6.470  0.00  0.00    +0.013 A 
ATOM     17  C   UNL     1      -8.569  16.998  -7.530  0.00  0.00    +0.005 A 
ATOM     18  C   UNL     1      -7.242  16.487  -7.867  0.00  0.00    -0.033 A 
ATOM     28  C   UNL     1      -6.703  15.359  -7.125  0.00  0.00    +0.005 A 
ATOM     29  C   UNL     1      -7.436  14.742  -6.086  0.00  0.00    +0.013 A 
BRANCH  18  19
ATOM     19  C   UNL     1      -6.380  17.080  -8.997  0.00  0.00    +0.119 C 
BRANCH  19  20
ATOM     20  N   UNL     1      -5.417  16.162  -9.676  0.00  0.00    -0.302 NA
ATOM     21  C   UNL     1      -4.034  16.191  -9.019  0.00  0.00    +0.066 C 
ATOM     22  C   UNL     1      -3.047  15.208  -9.728  0.00  0.00    -0.064 C 
ATOM     23  N   UNL     1      -2.950  15.569 -11.211  0.00  0.00    +0.379 N 
ATOM     24  C   UNL     1      -1.978  14.683 -11.869  0.00  0.00    -0.096 C 
ATOM     25  H   UNL     1      -2.559  16.610 -11.281  0.00  0.00    -0.082 HD
ATOM     26  C   UNL     1      -4.321  15.544 -11.871  0.00  0.00    -0.064 C 
ATOM     27  C   UNL     1      -5.303  16.502 -11.141  0.00  0.00    +0.066 C 
ENDBRANCH  19  20
ENDBRANCH  18  19
ENDBRANCH  14  15
ENDBRANCH  12  13
TORSDOF 6
ENDMDL
MODEL 5
REMARK VINA RESULT:      -8.0      9.128     16.957
REMARK  Name = C:\Users\Docking\Desktop\test protocol\1iep_ligandH.pdb
REMARK  8 active torsions:
REMARK  status: ('A' for Active; 'I' for Inactive)
REMARK    1  A    between atoms: _5  and  _11
REMARK    2  A    between atoms: _19  and  _21
REMARK    3  A    between atoms: _22  and  _66
REMARK    4  A    between atoms: _27  and  _30
REMARK    5  A    between atoms: _32  and  _33
REMARK    6  A    between atoms: _38  and  _43
REMARK    7  A    between atoms: _43  and  _46
REMARK    8  A    between atoms: _53  and  _55
REMARK                            x       y       z     vdW  Elec       q    Type
REMARK                         _______ _______ _______ _____ _____    ______ ____
ROOT
ATOM     10  C   UNL     1      -8.483  17.686  -0.593  0.00  0.00    +0.038 A 
ATOM     11  C   UNL     1      -9.685  18.322  -0.190  0.00  0.00    +0.047 A 
ATOM     12  C   UNL     1     -10.147  18.253   1.188  0.00  0.00    +0.035 A 
ATOM     32  C   UNL     1      -9.359  17.530   2.130  0.00  0.00    +0.024 A 
ATOM     33  C   UNL     1      -8.135  16.877   1.737  0.00  0.00    +0.007 A 
ATOM     34  C   UNL     1      -7.675  16.939   0.379  0.00  0.00    -0.029 A 
ATOM     35  C   UNL     1      -6.359  16.214   0.014  0.00  0.00    +0.045 C 
ENDROOT
BRANCH  10   9
ATOM      4  C   UNL     1      -8.521  16.158  -5.143  0.00  0.00    +0.077 A 
ATOM      5  C   UNL     1      -9.384  15.056  -4.827  0.00  0.00    +0.048 A 
ATOM      6  C   UNL     1      -9.789  14.913  -3.481  0.00  0.00    +0.116 A 
ATOM      7  N   UNL     1      -9.358  15.812  -2.530  0.00  0.00    -0.223 NA
ATOM      8  C   UNL     1      -8.525  16.863  -2.867  0.00  0.00    +0.220 A 
ATOM      9  N   UNL     1      -8.086  17.784  -1.928  0.00  0.00    -0.283 N 
ATOM     36  H   UNL     1      -7.467  18.541  -2.216  0.00  0.00    +0.155 HD
ATOM     37  N   UNL     1      -8.123  17.020  -4.146  0.00  0.00    -0.214 NA
BRANCH   4   3
ATOM      1  C   UNL     1      -7.862  15.969  -8.994  0.00  0.00    +0.020 A 
ATOM      2  C   UNL     1      -8.384  15.650  -7.684  0.00  0.00    +0.013 A 
ATOM      3  C   UNL     1      -8.010  16.444  -6.520  0.00  0.00    +0.019 A 
ATOM     38  C   UNL     1      -7.101  17.563  -6.717  0.00  0.00    +0.120 A 
ATOM     39  N   UNL     1      -6.614  17.845  -7.989  0.00  0.00    -0.263 NA
ATOM     40  C   UNL     1      -6.965  17.087  -9.117  0.00  0.00    +0.111 A 
ENDBRANCH   4   3
ENDBRANCH  10   9
BRANCH  12  13
ATOM     13  N   UNL     1     -11.363  18.872   1.653  0.00  0.00    -0.281 N 
ATOM     14  C   UNL     1     -12.611  18.289   1.808  0.00  0.00    +0.248 C 
ATOM     30  O   UNL     1     -12.921  17.194   1.364  0.00  0.00    -0.270 OA
ATOM     31  H   UNL     1     -11.297  19.860   1.899  0.00  0.00    +0.155 HD
BRANCH  14  15
ATOM     15  C   UNL     1     -13.670  19.037   2.551  0.00  0.00    +0.037 A 
ATOM     16  C   UNL     1     -14.571  19.964   1.861  0.00  0.00    +0.013 A 
ATOM     17  C   UNL     1     -15.574  20.686   2.604  0.00  0.00    +0.005 A 
ATOM     18  C   UNL     1     -15.681  20.482   4.047  0.00  0.00    -0.033 A 
ATOM     28  C   UNL     1     -14.778  19.552   4.705  0.00  0.00    +0.005 A 
ATOM     29  C   UNL     1     -13.793  18.844   3.980  0.00  0.00    +0.013 A 
BRANCH  18  19
ATOM     19  C   UNL     1     -16.707  21.225   4.923  0.00  0.00    +0.119 C 
BRANCH  19  20
ATOM     20  N   UNL     1     -16.567  21.091   6.403  0.00  0.00    -0.302 NA
ATOM     21  C   UNL     1     -17.859  20.596   7.060  0.00  0.00    +0.066 C 
ATOM     22  C   UNL     1     -17.687  20.439   8.606  0.00  0.00    -0.064 C 
ATOM     23  N   UNL     1     -17.253  21.777   9.206  0.00  0.00    +0.379 N 
ATOM     24  C   UNL     1     -17.147  21.649  10.667  0.00  0.00    -0.096 C 
ATOM     25  H   UNL     1     -18.054  22.521   8.989  0.00  0.00    -0.082 HD
ATOM     26  C   UNL     1     -15.970  22.278   8.557  0.00  0.00    -0.064 C 
ATOM     27  C   UNL     1     -16.142  22.402   7.017  0.00  0.00    +0.066 C 
ENDBRANCH  19  20
ENDBRANCH  18  19
ENDBRANCH  14  15
ENDBRANCH  12  13
TORSDOF 6
ENDMDL
