MODEL 1
REMARK VINA RESULT:      -9.1      0.000      0.000
REMARK  Name = C:\Users\Docking\Desktop\test protocol\1iep_ligandH.pdb
REMARK  8 active torsions:
REMARK  status: ('A' for Active; 'I' for Inactive)
REMARK    1  A    between atoms: _5  and  _11
REMARK    2  A    between atoms: _19  and  _21
REMARK    3  A    between atoms: _22  and  _66
REMARK    4  A    between atoms: _27  and  _30
REMARK    5  A    between atoms: _32  and  _33
REMARK    6  A    between atoms: _38  and  _43
REMARK    7  A    between atoms: _43  and  _46
REMARK    8  A    between atoms: _53  and  _55
REMARK                            x       y       z     vdW  Elec       q    Type
REMARK                         _______ _______ _______ _____ _____    ______ ____
ROOT
ATOM     10  C   UNL     1      13.869  22.620  16.466  0.00  0.00    +0.038 A 
ATOM     11  C   UNL     1      12.886  22.461  15.456  0.00  0.00    +0.047 A 
ATOM     12  C   UNL     1      11.820  21.480  15.591  0.00  0.00    +0.035 A 
ATOM     32  C   UNL     1      11.784  20.680  16.770  0.00  0.00    +0.024 A 
ATOM     33  C   UNL     1      12.775  20.828  17.806  0.00  0.00    +0.007 A 
ATOM     34  C   UNL     1      13.831  21.792  17.677  0.00  0.00    -0.029 A 
ATOM     35  C   UNL     1      14.870  21.903  18.817  0.00  0.00    +0.045 C 
ENDROOT
BRANCH  10   9
ATOM      4  C   UNL     1      18.117  24.025  14.729  0.00  0.00    +0.077 A 
ATOM      5  C   UNL     1      18.376  22.735  14.158  0.00  0.00    +0.048 A 
ATOM      6  C   UNL     1      17.394  21.735  14.339  0.00  0.00    +0.116 A 
ATOM      7  N   UNL     1      16.243  22.016  15.042  0.00  0.00    -0.223 NA
ATOM      8  C   UNL     1      16.024  23.270  15.581  0.00  0.00    +0.220 A 
ATOM      9  N   UNL     1      14.870  23.577  16.285  0.00  0.00    -0.283 N 
ATOM     36  H   UNL     1      14.750  24.512  16.673  0.00  0.00    +0.155 HD
ATOM     37  N   UNL     1      16.948  24.242  15.423  0.00  0.00    -0.214 NA
BRANCH   4   3
ATOM      1  C   UNL     1      19.552  27.642  14.337  0.00  0.00    +0.020 A 
ATOM      2  C   UNL     1      18.603  26.558  14.437  0.00  0.00    +0.013 A 
ATOM      3  C   UNL     1      19.057  25.185  14.619  0.00  0.00    +0.019 A 
ATOM     38  C   UNL     1      20.489  24.941  14.699  0.00  0.00    +0.120 A 
ATOM     39  N   UNL     1      21.380  26.006  14.598  0.00  0.00    -0.263 NA
ATOM     40  C   UNL     1      20.955  27.331  14.421  0.00  0.00    +0.111 A 
ENDBRANCH   4   3
ENDBRANCH  10   9
BRANCH  12  13
ATOM     13  N   UNL     1      10.800  21.268  14.595  0.00  0.00    -0.281 N 
ATOM     14  C   UNL     1       9.434  21.459  14.721  0.00  0.00    +0.248 C 
ATOM     30  O   UNL     1       8.856  21.640  15.783  0.00  0.00    -0.270 OA
ATOM     31  H   UNL     1      11.124  20.936  13.686  0.00  0.00    +0.155 HD
BRANCH  14  15
ATOM     15  C   UNL     1       8.584  21.432  13.492  0.00  0.00    +0.037 A 
ATOM     16  C   UNL     1       8.518  20.242  12.640  0.00  0.00    +0.013 A 
ATOM     17  C   UNL     1       7.704  20.248  11.450  0.00  0.00    +0.005 A 
ATOM     18  C   UNL     1       6.947  21.450  11.106  0.00  0.00    -0.033 A 
ATOM     28  C   UNL     1       7.027  22.615  11.972  0.00  0.00    +0.005 A 
ATOM     29  C   UNL     1       7.825  22.613  13.138  0.00  0.00    +0.013 A 
BRANCH  18  19
ATOM     19  C   UNL     1       6.070  21.554   9.845  0.00  0.00    +0.119 C 
BRANCH  19  20
ATOM     20  N   UNL     1       6.701  22.122   8.617  0.00  0.00    -0.302 NA
ATOM     21  C   UNL     1       6.936  23.630   8.737  0.00  0.00    +0.066 C 
ATOM     22  C   UNL     1       7.618  24.204   7.452  0.00  0.00    -0.064 C 
ATOM     23  N   UNL     1       6.751  23.886   6.233  0.00  0.00    +0.379 N 
ATOM     24  C   UNL     1       7.361  24.474   5.031  0.00  0.00    -0.096 C 
ATOM     25  H   UNL     1       5.761  24.375   6.384  0.00  0.00    -0.082 HD
ATOM     26  C   UNL     1       6.511  22.388   6.107  0.00  0.00    -0.064 C 
ATOM     27  C   UNL     1       5.860  21.823   7.401  0.00  0.00    +0.066 C 
ENDBRANCH  19  20
ENDBRANCH  18  19
ENDBRANCH  14  15
ENDBRANCH  12  13
TORSDOF 6
ENDMDL
MODEL 2
REMARK VINA RESULT:      -8.7      1.562      2.102
REMARK  Name = C:\Users\Docking\Desktop\test protocol\1iep_ligandH.pdb
REMARK  8 active torsions:
REMARK  status: ('A' for Active; 'I' for Inactive)
REMARK    1  A    between atoms: _5  and  _11
REMARK    2  A    between atoms: _19  and  _21
REMARK    3  A    between atoms: _22  and  _66
REMARK    4  A    between atoms: _27  and  _30
REMARK    5  A    between atoms: _32  and  _33
REMARK    6  A    between atoms: _38  and  _43
REMARK    7  A    between atoms: _43  and  _46
REMARK    8  A    between atoms: _53  and  _55
REMARK                            x       y       z     vdW  Elec       q    Type
REMARK                         _______ _______ _______ _____ _____    ______ ____
ROOT
ATOM     10  C   UNL     1      14.684  21.038  15.253  0.00  0.00    +0.038 A 
ATOM     11  C   UNL     1      13.450  21.250  14.587  0.00  0.00    +0.047 A 
ATOM     12  C   UNL     1      12.495  20.166  14.411  0.00  0.00    +0.035 A 
ATOM     32  C   UNL     1      12.829  18.881  14.927  0.00  0.00    +0.024 A 
ATOM     33  C   UNL     1      14.080  18.648  15.606  0.00  0.00    +0.007 A 
ATOM     34  C   UNL     1      15.027  19.712  15.780  0.00  0.00    -0.029 A 
ATOM     35  C   UNL     1      16.355  19.404  16.510  0.00  0.00    +0.045 C 
ENDROOT
BRANCH  10   9
ATOM      4  C   UNL     1      18.320  23.765  13.708  0.00  0.00    +0.077 A 
ATOM      5  C   UNL     1      18.500  22.962  12.533  0.00  0.00    +0.048 A 
ATOM      6  C   UNL     1      17.641  21.852  12.367  0.00  0.00    +0.116 A 
ATOM      7  N   UNL     1      16.677  21.576  13.312  0.00  0.00    -0.223 NA
ATOM      8  C   UNL     1      16.531  22.369  14.435  0.00  0.00    +0.220 A 
ATOM      9  N   UNL     1      15.563  22.114  15.394  0.00  0.00    -0.283 N 
ATOM     36  H   UNL     1      15.493  22.719  16.212  0.00  0.00    +0.155 HD
ATOM     37  N   UNL     1      17.340  23.434  14.617  0.00  0.00    -0.214 NA
BRANCH   4   3
ATOM      1  C   UNL     1      21.329  26.099  14.601  0.00  0.00    +0.020 A 
ATOM      2  C   UNL     1      20.576  24.903  14.303  0.00  0.00    +0.013 A 
ATOM      3  C   UNL     1      19.147  24.972  14.023  0.00  0.00    +0.019 A 
ATOM     38  C   UNL     1      18.506  26.278  14.053  0.00  0.00    +0.120 A 
ATOM     39  N   UNL     1      19.256  27.413  14.344  0.00  0.00    -0.263 NA
ATOM     40  C   UNL     1      20.631  27.358  14.617  0.00  0.00    +0.111 A 
ENDBRANCH   4   3
ENDBRANCH  10   9
BRANCH  12  13
ATOM     13  N   UNL     1      11.230  20.319  13.736  0.00  0.00    -0.281 N 
ATOM     14  C   UNL     1      10.035  20.782  14.262  0.00  0.00    +0.248 C 
ATOM     30  O   UNL     1       9.818  20.935  15.455  0.00  0.00    -0.270 OA
ATOM     31  H   UNL     1      11.213  20.053  12.751  0.00  0.00    +0.155 HD
BRANCH  14  15
ATOM     15  C   UNL     1       8.914  21.109  13.329  0.00  0.00    +0.037 A 
ATOM     16  C   UNL     1       8.280  22.430  13.335  0.00  0.00    +0.013 A 
ATOM     17  C   UNL     1       7.190  22.714  12.437  0.00  0.00    +0.005 A 
ATOM     18  C   UNL     1       6.726  21.673  11.523  0.00  0.00    -0.033 A 
ATOM     28  C   UNL     1       7.375  20.372  11.534  0.00  0.00    +0.005 A 
ATOM     29  C   UNL     1       8.444  20.091  12.414  0.00  0.00    +0.013 A 
BRANCH  18  19
ATOM     19  C   UNL     1       5.554  21.880  10.544  0.00  0.00    +0.119 C 
BRANCH  19  20
ATOM     20  N   UNL     1       5.894  22.277   9.145  0.00  0.00    -0.302 NA
ATOM     21  C   UNL     1       6.158  21.062   8.252  0.00  0.00    +0.066 C 
ATOM     22  C   UNL     1       6.490  21.494   6.786  0.00  0.00    -0.064 C 
ATOM     23  N   UNL     1       7.698  22.432   6.795  0.00  0.00    +0.379 N 
ATOM     24  C   UNL     1       8.048  22.794   5.414  0.00  0.00    -0.096 C 
ATOM     25  H   UNL     1       8.559  21.870   7.227  0.00  0.00    -0.082 HD
ATOM     26  C   UNL     1       7.445  23.642   7.684  0.00  0.00    -0.064 C 
ATOM     27  C   UNL     1       7.088  23.200   9.131  0.00  0.00    +0.066 C 
ENDBRANCH  19  20
ENDBRANCH  18  19
ENDBRANCH  14  15
ENDBRANCH  12  13
TORSDOF 6
ENDMDL
MODEL 3
REMARK VINA RESULT:      -8.6     11.144     13.009
REMARK  Name = C:\Users\Docking\Desktop\test protocol\1iep_ligandH.pdb
REMARK  8 active torsions:
REMARK  status: ('A' for Active; 'I' for Inactive)
REMARK    1  A    between atoms: _5  and  _11
REMARK    2  A    between atoms: _19  and  _21
REMARK    3  A    between atoms: _22  and  _66
REMARK    4  A    between atoms: _27  and  _30
REMARK    5  A    between atoms: _32  and  _33
REMARK    6  A    between atoms: _38  and  _43
REMARK    7  A    between atoms: _43  and  _46
REMARK    8  A    between atoms: _53  and  _55
REMARK                            x       y       z     vdW  Elec       q    Type
REMARK                         _______ _______ _______ _____ _____    ______ ____
ROOT
ATOM     10  C   UNL     1      10.127  27.288  20.698  0.00  0.00    +0.038 A 
ATOM     11  C   UNL     1       9.550  28.406  20.043  0.00  0.00    +0.047 A 
ATOM     12  C   UNL     1       8.696  29.340  20.760  0.00  0.00    +0.035 A 
ATOM     32  C   UNL     1       8.453  29.107  22.145  0.00  0.00    +0.024 A 
ATOM     33  C   UNL     1       9.031  27.975  22.827  0.00  0.00    +0.007 A 
ATOM     34  C   UNL     1       9.872  27.049  22.124  0.00  0.00    -0.029 A 
ATOM     35  C   UNL     1      10.460  25.850  22.903  0.00  0.00    +0.045 C 
ENDROOT
BRANCH  10   9
ATOM      4  C   UNL     1      10.759  23.502  17.817  0.00  0.00    +0.077 A 
ATOM      5  C   UNL     1       9.355  23.205  17.801  0.00  0.00    +0.048 A 
ATOM      6  C   UNL     1       8.506  24.047  18.553  0.00  0.00    +0.116 A 
ATOM      7  N   UNL     1       9.031  25.104  19.264  0.00  0.00    -0.223 NA
ATOM      8  C   UNL     1      10.390  25.361  19.259  0.00  0.00    +0.220 A 
ATOM      9  N   UNL     1      10.939  26.424  19.961  0.00  0.00    -0.283 N 
ATOM     36  H   UNL     1      11.947  26.575  19.938  0.00  0.00    +0.155 HD
ATOM     37  N   UNL     1      11.223  24.571  18.551  0.00  0.00    -0.214 NA
BRANCH   4   3
ATOM      1  C   UNL     1      13.795  22.507  15.560  0.00  0.00    +0.020 A 
ATOM      2  C   UNL     1      12.829  23.321  16.262  0.00  0.00    +0.013 A 
ATOM      3  C   UNL     1      11.784  22.706  17.070  0.00  0.00    +0.019 A 
ATOM     38  C   UNL     1      11.744  21.254  17.149  0.00  0.00    +0.120 A 
ATOM     39  N   UNL     1      12.686  20.495  16.462  0.00  0.00    -0.263 NA
ATOM     40  C   UNL     1      13.696  21.076  15.679  0.00  0.00    +0.111 A 
ENDBRANCH   4   3
ENDBRANCH  10   9
BRANCH  12  13
ATOM     13  N   UNL     1       8.075  30.488  20.146  0.00  0.00    -0.281 N 
ATOM     14  C   UNL     1       7.201  31.394  20.724  0.00  0.00    +0.248 C 
ATOM     30  O   UNL     1       6.651  31.232  21.803  0.00  0.00    -0.270 OA
ATOM     31  H   UNL     1       8.309  30.652  19.167  0.00  0.00    +0.155 HD
BRANCH  14  15
ATOM     15  C   UNL     1       6.882  32.657  19.991  0.00  0.00    +0.037 A 
ATOM     16  C   UNL     1       5.498  33.032  19.691  0.00  0.00    +0.013 A 
ATOM     17  C   UNL     1       5.218  34.247  18.967  0.00  0.00    +0.005 A 
ATOM     18  C   UNL     1       6.327  35.097  18.540  0.00  0.00    -0.033 A 
ATOM     28  C   UNL     1       7.690  34.704  18.856  0.00  0.00    +0.005 A 
ATOM     29  C   UNL     1       7.968  33.513  19.564  0.00  0.00    +0.013 A 
BRANCH  18  19
ATOM     19  C   UNL     1       6.123  36.400  17.745  0.00  0.00    +0.119 C 
BRANCH  19  20
ATOM     20  N   UNL     1       5.218  37.429  18.339  0.00  0.00    -0.302 NA
ATOM     21  C   UNL     1       5.342  38.781  17.630  0.00  0.00    +0.066 C 
ATOM     22  C   UNL     1       4.373  39.840  18.250  0.00  0.00    -0.064 C 
ATOM     23  N   UNL     1       4.666  39.983  19.744  0.00  0.00    +0.379 N 
ATOM     24  C   UNL     1       3.796  41.019  20.318  0.00  0.00    -0.096 C 
ATOM     25  H   UNL     1       5.721  40.330  19.850  0.00  0.00    -0.082 HD
ATOM     26  C   UNL     1       4.548  38.643  20.456  0.00  0.00    -0.064 C 
ATOM     27  C   UNL     1       5.494  37.590  19.814  0.00  0.00    +0.066 C 
ENDBRANCH  19  20
ENDBRANCH  18  19
ENDBRANCH  14  15
ENDBRANCH  12  13
TORSDOF 6
ENDMDL
MODEL 4
REMARK VINA RESULT:      -8.6     11.181     13.355
REMARK  Name = C:\Users\Docking\Desktop\test protocol\1iep_ligandH.pdb
REMARK  8 active torsions:
REMARK  status: ('A' for Active; 'I' for Inactive)
REMARK    1  A    between atoms: _5  and  _11
REMARK    2  A    between atoms: _19  and  _21
REMARK    3  A    between atoms: _22  and  _66
REMARK    4  A    between atoms: _27  and  _30
REMARK    5  A    between atoms: _32  and  _33
REMARK    6  A    between atoms: _38  and  _43
REMARK    7  A    between atoms: _43  and  _46
REMARK    8  A    between atoms: _53  and  _55
REMARK                            x       y       z     vdW  Elec       q    Type
REMARK                         _______ _______ _______ _____ _____    ______ ____
ROOT
ATOM     10  C   UNL     1       9.457  27.239  21.308  0.00  0.00    +0.038 A 
ATOM     11  C   UNL     1       9.006  28.522  20.906  0.00  0.00    +0.047 A 
ATOM     12  C   UNL     1       8.576  29.509  21.884  0.00  0.00    +0.035 A 
ATOM     32  C   UNL     1       8.621  29.156  23.264  0.00  0.00    +0.024 A 
ATOM     33  C   UNL     1       9.076  27.856  23.690  0.00  0.00    +0.007 A 
ATOM     34  C   UNL     1       9.499  26.877  22.730  0.00  0.00    -0.029 A 
ATOM     35  C   UNL     1       9.971  25.497  23.243  0.00  0.00    +0.045 C 
ENDROOT
BRANCH  10   9
ATOM      4  C   UNL     1       8.564  23.673  18.222  0.00  0.00    +0.077 A 
ATOM      5  C   UNL     1       7.187  23.595  18.619  0.00  0.00    +0.048 A 
ATOM      6  C   UNL     1       6.751  24.486  19.625  0.00  0.00    +0.116 A 
ATOM      7  N   UNL     1       7.634  25.383  20.185  0.00  0.00    -0.223 NA
ATOM      8  C   UNL     1       8.955  25.430  19.781  0.00  0.00    +0.220 A 
ATOM      9  N   UNL     1       9.859  26.330  20.326  0.00  0.00    -0.283 N 
ATOM     36  H   UNL     1      10.827  26.329  20.006  0.00  0.00    +0.155 HD
ATOM     37  N   UNL     1       9.397  24.589  18.823  0.00  0.00    -0.214 NA
BRANCH   4   3
ATOM      1  C   UNL     1      11.141  21.667  16.069  0.00  0.00    +0.020 A 
ATOM      2  C   UNL     1      10.602  22.516  17.106  0.00  0.00    +0.013 A 
ATOM      3  C   UNL     1       9.174  22.801  17.169  0.00  0.00    +0.019 A 
ATOM     38  C   UNL     1       8.312  22.205  16.160  0.00  0.00    +0.120 A 
ATOM     39  N   UNL     1       8.859  21.392  15.172  0.00  0.00    -0.263 NA
ATOM     40  C   UNL     1      10.232  21.113  15.101  0.00  0.00    +0.111 A 
ENDBRANCH   4   3
ENDBRANCH  10   9
BRANCH  12  13
ATOM     13  N   UNL     1       8.101  30.825  21.535  0.00  0.00    -0.281 N 
ATOM     14  C   UNL     1       7.304  31.185  20.461  0.00  0.00    +0.248 C 
ATOM     30  O   UNL     1       7.054  30.458  19.511  0.00  0.00    -0.270 OA
ATOM     31  H   UNL     1       8.387  31.582  22.156  0.00  0.00    +0.155 HD
BRANCH  14  15
ATOM     15  C   UNL     1       6.711  32.557  20.430  0.00  0.00    +0.037 A 
ATOM     16  C   UNL     1       5.273  32.767  20.609  0.00  0.00    +0.013 A 
ATOM     17  C   UNL     1       4.725  34.100  20.558  0.00  0.00    +0.005 A 
ATOM     18  C   UNL     1       5.617  35.233  20.327  0.00  0.00    -0.033 A 
ATOM     28  C   UNL     1       7.041  34.996  20.158  0.00  0.00    +0.005 A 
ATOM     29  C   UNL     1       7.582  33.692  20.207  0.00  0.00    +0.013 A 
BRANCH  18  19
ATOM     19  C   UNL     1       5.117  36.687  20.236  0.00  0.00    +0.119 C 
BRANCH  19  20
ATOM     20  N   UNL     1       5.452  37.449  18.996  0.00  0.00    -0.302 NA
ATOM     21  C   UNL     1       5.163  38.945  19.146  0.00  0.00    +0.066 C 
ATOM     22  C   UNL     1       5.540  39.730  17.848  0.00  0.00    -0.064 C 
ATOM     23  N   UNL     1       4.772  39.146  16.660  0.00  0.00    +0.379 N 
ATOM     24  C   UNL     1       5.081  39.919  15.449  0.00  0.00    -0.096 C 
ATOM     25  H   UNL     1       3.684  39.265  16.870  0.00  0.00    -0.082 HD
ATOM     26  C   UNL     1       5.052  37.658  16.506  0.00  0.00    -0.064 C 
ATOM     27  C   UNL     1       4.701  36.891  17.812  0.00  0.00    +0.066 C 
ENDBRANCH  19  20
ENDBRANCH  18  19
ENDBRANCH  14  15
ENDBRANCH  12  13
TORSDOF 6
ENDMDL
MODEL 5
REMARK VINA RESULT:      -8.4     15.235     20.272
REMARK  Name = C:\Users\Docking\Desktop\test protocol\1iep_ligandH.pdb
REMARK  8 active torsions:
REMARK  status: ('A' for Active; 'I' for Inactive)
REMARK    1  A    between atoms: _5  and  _11
REMARK    2  A    between atoms: _19  and  _21
REMARK    3  A    between atoms: _22  and  _66
REMARK    4  A    between atoms: _27  and  _30
REMARK    5  A    between atoms: _32  and  _33
REMARK    6  A    between atoms: _38  and  _43
REMARK    7  A    between atoms: _43  and  _46
REMARK    8  A    between atoms: _53  and  _55
REMARK                            x       y       z     vdW  Elec       q    Type
REMARK                         _______ _______ _______ _____ _____    ______ ____
ROOT
ATOM     10  C   UNL     1       6.960  33.605  21.020  0.00  0.00    +0.038 A 
ATOM     11  C   UNL     1       8.158  34.305  21.315  0.00  0.00    +0.047 A 
ATOM     12  C   UNL     1       9.092  34.675  20.263  0.00  0.00    +0.035 A 
ATOM     32  C   UNL     1       8.773  34.317  18.920  0.00  0.00    +0.024 A 
ATOM     33  C   UNL     1       7.561  33.605  18.603  0.00  0.00    +0.007 A 
ATOM     34  C   UNL     1       6.637  33.235  19.637  0.00  0.00    -0.029 A 
ATOM     35  C   UNL     1       5.356  32.466  19.239  0.00  0.00    +0.045 C 
ENDROOT
BRANCH  10   9
ATOM      4  C   UNL     1       3.089  34.427  23.736  0.00  0.00    +0.077 A 
ATOM      5  C   UNL     1       2.770  35.629  23.021  0.00  0.00    +0.048 A 
ATOM      6  C   UNL     1       3.631  36.005  21.966  0.00  0.00    +0.116 A 
ATOM      7  N   UNL     1       4.727  35.228  21.657  0.00  0.00    -0.223 NA
ATOM      8  C   UNL     1       5.007  34.076  22.368  0.00  0.00    +0.220 A 
ATOM      9  N   UNL     1       6.099  33.275  22.069  0.00  0.00    -0.283 N 
ATOM     36  H   UNL     1       6.276  32.437  22.622  0.00  0.00    +0.155 HD
ATOM     37  N   UNL     1       4.201  33.696  23.381  0.00  0.00    -0.214 NA
BRANCH   4   3
ATOM      1  C   UNL     1       1.090  32.037  26.101  0.00  0.00    +0.020 A 
ATOM      2  C   UNL     1       1.878  32.497  24.981  0.00  0.00    +0.013 A 
ATOM      3  C   UNL     1       2.273  33.896  24.874  0.00  0.00    +0.019 A 
ATOM     38  C   UNL     1       1.852  34.810  25.925  0.00  0.00    +0.120 A 
ATOM     39  N   UNL     1       1.092  34.338  26.991  0.00  0.00    -0.263 NA
ATOM     40  C   UNL     1       0.705  32.994  27.104  0.00  0.00    +0.111 A 
ENDBRANCH   4   3
ENDBRANCH  10   9
BRANCH  12  13
ATOM     13  N   UNL     1      10.327  35.379  20.503  0.00  0.00    -0.281 N 
ATOM     14  C   UNL     1      11.023  35.495  21.695  0.00  0.00    +0.248 C 
ATOM     30  O   UNL     1      10.575  35.188  22.790  0.00  0.00    -0.270 OA
ATOM     31  H   UNL     1      10.738  35.848  19.696  0.00  0.00    +0.155 HD
BRANCH  14  15
ATOM     15  C   UNL     1      12.413  36.046  21.669  0.00  0.00    +0.037 A 
ATOM     16  C   UNL     1      12.935  36.735  20.486  0.00  0.00    +0.013 A 
ATOM     17  C   UNL     1      14.285  37.241  20.481  0.00  0.00    +0.005 A 
ATOM     18  C   UNL     1      15.121  37.062  21.666  0.00  0.00    -0.033 A 
ATOM     28  C   UNL     1      14.575  36.380  22.827  0.00  0.00    +0.005 A 
ATOM     29  C   UNL     1      13.254  35.881  22.835  0.00  0.00    +0.013 A 
BRANCH  18  19
ATOM     19  C   UNL     1      16.579  37.552  21.741  0.00  0.00    +0.119 C 
BRANCH  19  20
ATOM     20  N   UNL     1      16.937  38.462  22.870  0.00  0.00    -0.302 NA
ATOM     21  C   UNL     1      16.005  39.675  22.948  0.00  0.00    +0.066 C 
ATOM     22  C   UNL     1      16.380  40.605  24.148  0.00  0.00    -0.064 C 
ATOM     23  N   UNL     1      17.837  41.049  24.009  0.00  0.00    +0.379 N 
ATOM     24  C   UNL     1      18.175  41.970  25.104  0.00  0.00    -0.096 C 
ATOM     25  H   UNL     1      17.928  41.614  23.052  0.00  0.00    -0.082 HD
ATOM     26  C   UNL     1      18.770  39.850  23.928  0.00  0.00    -0.064 C 
ATOM     27  C   UNL     1      18.371  38.917  22.751  0.00  0.00    +0.066 C 
ENDBRANCH  19  20
ENDBRANCH  18  19
ENDBRANCH  14  15
ENDBRANCH  12  13
TORSDOF 6
ENDMDL
