MODEL 1
REMARK VINA RESULT:      -8.2      0.000      0.000
REMARK  Name = C:\Users\Docking\Desktop\test protocol\1iep_ligandH.pdb
REMARK  8 active torsions:
REMARK  status: ('A' for Active; 'I' for Inactive)
REMARK    1  A    between atoms: _5  and  _11
REMARK    2  A    between atoms: _19  and  _21
REMARK    3  A    between atoms: _22  and  _66
REMARK    4  A    between atoms: _27  and  _30
REMARK    5  A    between atoms: _32  and  _33
REMARK    6  A    between atoms: _38  and  _43
REMARK    7  A    between atoms: _43  and  _46
REMARK    8  A    between atoms: _53  and  _55
REMARK                            x       y       z     vdW  Elec       q    Type
REMARK                         _______ _______ _______ _____ _____    ______ ____
ROOT
ATOM     10  C   UNL     1      -9.081 -14.345   8.230  0.00  0.00    +0.038 A 
ATOM     11  C   UNL     1      -9.537 -13.623   7.097  0.00  0.00    +0.047 A 
ATOM     12  C   UNL     1     -10.195 -14.299   5.990  0.00  0.00    +0.035 A 
ATOM     32  C   UNL     1     -10.375 -15.711   6.071  0.00  0.00    +0.024 A 
ATOM     33  C   UNL     1      -9.917 -16.460   7.214  0.00  0.00    +0.007 A 
ATOM     34  C   UNL     1      -9.265 -15.799   8.309  0.00  0.00    -0.029 A 
ATOM     35  C   UNL     1      -8.789 -16.653   9.507  0.00  0.00    +0.045 C 
ENDROOT
BRANCH  10   9
ATOM      4  C   UNL     1      -5.181 -13.037  10.703  0.00  0.00    +0.077 A 
ATOM      5  C   UNL     1      -4.319 -13.836   9.881  0.00  0.00    +0.048 A 
ATOM      6  C   UNL     1      -4.920 -14.574   8.837  0.00  0.00    +0.116 A 
ATOM      7  N   UNL     1      -6.282 -14.510   8.638  0.00  0.00    -0.223 NA
ATOM      8  C   UNL     1      -7.085 -13.731   9.451  0.00  0.00    +0.220 A 
ATOM      9  N   UNL     1      -8.456 -13.645   9.265  0.00  0.00    -0.283 N 
ATOM     36  H   UNL     1      -9.015 -13.065   9.891  0.00  0.00    +0.155 HD
ATOM     37  N   UNL     1      -6.536 -13.017  10.456  0.00  0.00    -0.214 NA
BRANCH   4   3
ATOM      1  C   UNL     1      -3.468 -11.886  14.026  0.00  0.00    +0.020 A 
ATOM      2  C   UNL     1      -3.913 -12.739  12.948  0.00  0.00    +0.013 A 
ATOM      3  C   UNL     1      -4.696 -12.198  11.845  0.00  0.00    +0.019 A 
ATOM     38  C   UNL     1      -5.014 -10.778  11.861  0.00  0.00    +0.120 A 
ATOM     39  N   UNL     1      -4.573  -9.981  12.913  0.00  0.00    -0.263 NA
ATOM     40  C   UNL     1      -3.820 -10.491  13.981  0.00  0.00    +0.111 A 
ENDBRANCH   4   3
ENDBRANCH  10   9
BRANCH  12  13
ATOM     13  N   UNL     1     -10.671 -13.621   4.810  0.00  0.00    -0.281 N 
ATOM     14  C   UNL     1     -11.935 -13.104   4.576  0.00  0.00    +0.248 C 
ATOM     30  O   UNL     1     -12.915 -13.337   5.267  0.00  0.00    -0.270 OA
ATOM     31  H   UNL     1      -9.994 -13.507   4.055  0.00  0.00    +0.155 HD
BRANCH  14  15
ATOM     15  C   UNL     1     -12.143 -12.211   3.396  0.00  0.00    +0.037 A 
ATOM     16  C   UNL     1     -13.062 -12.580   2.316  0.00  0.00    +0.013 A 
ATOM     17  C   UNL     1     -13.232 -11.708   1.181  0.00  0.00    +0.005 A 
ATOM     18  C   UNL     1     -12.481 -10.456   1.121  0.00  0.00    -0.033 A 
ATOM     28  C   UNL     1     -11.580 -10.112   2.209  0.00  0.00    +0.005 A 
ATOM     29  C   UNL     1     -11.410 -10.965   3.322  0.00  0.00    +0.013 A 
BRANCH  18  19
ATOM     19  C   UNL     1     -12.583  -9.475  -0.062  0.00  0.00    +0.119 C 
BRANCH  19  20
ATOM     20  N   UNL     1     -11.324  -9.161  -0.801  0.00  0.00    -0.302 NA
ATOM     21  C   UNL     1     -10.797  -7.762  -0.468  0.00  0.00    +0.066 C 
ATOM     22  C   UNL     1      -9.467  -7.458  -1.232  0.00  0.00    -0.064 C 
ATOM     23  N   UNL     1      -9.702  -7.606  -2.737  0.00  0.00    +0.379 N 
ATOM     24  C   UNL     1      -8.469  -7.264  -3.461  0.00  0.00    -0.096 C 
ATOM     25  H   UNL     1     -10.483  -6.867  -3.031  0.00  0.00    -0.082 HD
ATOM     26  C   UNL     1     -10.228  -8.993  -3.076  0.00  0.00    -0.064 C 
ATOM     27  C   UNL     1     -11.534  -9.296  -2.289  0.00  0.00    +0.066 C 
ENDBRANCH  19  20
ENDBRANCH  18  19
ENDBRANCH  14  15
ENDBRANCH  12  13
TORSDOF 6
ENDMDL
MODEL 2
REMARK VINA RESULT:      -8.1      9.860     14.760
REMARK  Name = C:\Users\Docking\Desktop\test protocol\1iep_ligandH.pdb
REMARK  8 active torsions:
REMARK  status: ('A' for Active; 'I' for Inactive)
REMARK    1  A    between atoms: _5  and  _11
REMARK    2  A    between atoms: _19  and  _21
REMARK    3  A    between atoms: _22  and  _66
REMARK    4  A    between atoms: _27  and  _30
REMARK    5  A    between atoms: _32  and  _33
REMARK    6  A    between atoms: _38  and  _43
REMARK    7  A    between atoms: _43  and  _46
REMARK    8  A    between atoms: _53  and  _55
REMARK                            x       y       z     vdW  Elec       q    Type
REMARK                         _______ _______ _______ _____ _____    ______ ____
ROOT
ATOM     10  C   UNL     1     -10.087 -23.470  16.519  0.00  0.00    +0.038 A 
ATOM     11  C   UNL     1      -9.924 -22.286  15.755  0.00  0.00    +0.047 A 
ATOM     12  C   UNL     1      -9.492 -21.043  16.376  0.00  0.00    +0.035 A 
ATOM     32  C   UNL     1      -9.231 -21.043  17.777  0.00  0.00    +0.024 A 
ATOM     33  C   UNL     1      -9.393 -22.238  18.569  0.00  0.00    +0.007 A 
ATOM     34  C   UNL     1      -9.822 -23.465  17.962  0.00  0.00    -0.029 A 
ATOM     35  C   UNL     1      -9.985 -24.713  18.861  0.00  0.00    +0.045 C 
ENDROOT
BRANCH  10   9
ATOM      4  C   UNL     1     -13.470 -26.637  15.268  0.00  0.00    +0.077 A 
ATOM      5  C   UNL     1     -14.486 -25.926  15.989  0.00  0.00    +0.048 A 
ATOM      6  C   UNL     1     -14.095 -24.753  16.674  0.00  0.00    +0.116 A 
ATOM      7  N   UNL     1     -12.784 -24.333  16.634  0.00  0.00    -0.223 NA
ATOM      8  C   UNL     1     -11.828 -25.043  15.931  0.00  0.00    +0.220 A 
ATOM      9  N   UNL     1     -10.505 -24.635  15.871  0.00  0.00    -0.283 N 
ATOM     36  H   UNL     1      -9.829 -25.190  15.348  0.00  0.00    +0.155 HD
ATOM     37  N   UNL     1     -12.175 -26.167  15.270  0.00  0.00    -0.214 NA
BRANCH   4   3
ATOM      1  C   UNL     1     -13.527 -29.322  12.424  0.00  0.00    +0.020 A 
ATOM      2  C   UNL     1     -13.252 -28.091  13.129  0.00  0.00    +0.013 A 
ATOM      3  C   UNL     1     -13.727 -27.892  14.492  0.00  0.00    +0.019 A 
ATOM     38  C   UNL     1     -14.482 -28.966  15.119  0.00  0.00    +0.120 A 
ATOM     39  N   UNL     1     -14.733 -30.140  14.415  0.00  0.00    -0.263 NA
ATOM     40  C   UNL     1     -14.282 -30.342  13.102  0.00  0.00    +0.111 A 
ENDBRANCH   4   3
ENDBRANCH  10   9
BRANCH  12  13
ATOM     13  N   UNL     1      -9.317 -19.808  15.653  0.00  0.00    -0.281 N 
ATOM     14  C   UNL     1      -8.129 -19.174  15.326  0.00  0.00    +0.248 C 
ATOM     30  O   UNL     1      -7.038 -19.466  15.793  0.00  0.00    -0.270 OA
ATOM     31  H   UNL     1     -10.172 -19.345  15.345  0.00  0.00    +0.155 HD
BRANCH  14  15
ATOM     15  C   UNL     1      -8.160 -18.043  14.349  0.00  0.00    +0.037 A 
ATOM     16  C   UNL     1      -9.428 -17.466  13.895  0.00  0.00    +0.013 A 
ATOM     17  C   UNL     1      -9.429 -16.387  12.939  0.00  0.00    +0.005 A 
ATOM     18  C   UNL     1      -8.158 -15.877  12.431  0.00  0.00    -0.033 A 
ATOM     28  C   UNL     1      -6.915 -16.465  12.903  0.00  0.00    +0.005 A 
ATOM     29  C   UNL     1      -6.909 -17.524  13.839  0.00  0.00    +0.013 A 
BRANCH  18  19
ATOM     19  C   UNL     1      -8.065 -14.743  11.394  0.00  0.00    +0.119 C 
BRANCH  19  20
ATOM     20  N   UNL     1      -8.804 -14.929  10.109  0.00  0.00    -0.302 NA
ATOM     21  C   UNL     1      -8.495 -16.281   9.460  0.00  0.00    +0.066 C 
ATOM     22  C   UNL     1      -9.294 -16.469   8.129  0.00  0.00    -0.064 C 
ATOM     23  N   UNL     1      -8.964 -15.321   7.173  0.00  0.00    +0.379 N 
ATOM     24  C   UNL     1      -9.668 -15.526   5.899  0.00  0.00    -0.096 C 
ATOM     25  H   UNL     1      -7.869 -15.359   6.965  0.00  0.00    -0.082 HD
ATOM     26  C   UNL     1      -9.266 -13.973   7.812  0.00  0.00    -0.064 C 
ATOM     27  C   UNL     1      -8.490 -13.809   9.149  0.00  0.00    +0.066 C 
ENDBRANCH  19  20
ENDBRANCH  18  19
ENDBRANCH  14  15
ENDBRANCH  12  13
TORSDOF 6
ENDMDL
MODEL 3
REMARK VINA RESULT:      -8.1     13.179     18.539
REMARK  Name = C:\Users\Docking\Desktop\test protocol\1iep_ligandH.pdb
REMARK  8 active torsions:
REMARK  status: ('A' for Active; 'I' for Inactive)
REMARK    1  A    between atoms: _5  and  _11
REMARK    2  A    between atoms: _19  and  _21
REMARK    3  A    between atoms: _22  and  _66
REMARK    4  A    between atoms: _27  and  _30
REMARK    5  A    between atoms: _32  and  _33
REMARK    6  A    between atoms: _38  and  _43
REMARK    7  A    between atoms: _43  and  _46
REMARK    8  A    between atoms: _53  and  _55
REMARK                            x       y       z     vdW  Elec       q    Type
REMARK                         _______ _______ _______ _____ _____    ______ ____
ROOT
ATOM     10  C   UNL     1     -11.648 -22.387  16.072  0.00  0.00    +0.038 A 
ATOM     11  C   UNL     1     -11.676 -23.660  15.448  0.00  0.00    +0.047 A 
ATOM     12  C   UNL     1     -12.475 -24.747  15.992  0.00  0.00    +0.035 A 
ATOM     32  C   UNL     1     -13.235 -24.501  17.173  0.00  0.00    +0.024 A 
ATOM     33  C   UNL     1     -13.218 -23.213  17.820  0.00  0.00    +0.007 A 
ATOM     34  C   UNL     1     -12.430 -22.138  17.289  0.00  0.00    -0.029 A 
ATOM     35  C   UNL     1     -12.443 -20.780  18.028  0.00  0.00    +0.045 C 
ENDROOT
BRANCH  10   9
ATOM      4  C   UNL     1      -7.669 -19.707  15.911  0.00  0.00    +0.077 A 
ATOM      5  C   UNL     1      -7.118 -20.351  17.069  0.00  0.00    +0.048 A 
ATOM      6  C   UNL     1      -7.893 -21.362  17.680  0.00  0.00    +0.116 A 
ATOM      7  N   UNL     1      -9.126 -21.696  17.164  0.00  0.00    -0.223 NA
ATOM      8  C   UNL     1      -9.629 -21.054  16.047  0.00  0.00    +0.220 A 
ATOM      9  N   UNL     1     -10.864 -21.379  15.506  0.00  0.00    -0.283 N 
ATOM     36  H   UNL     1     -11.203 -20.877  14.685  0.00  0.00    +0.155 HD
ATOM     37  N   UNL     1      -8.909 -20.084  15.446  0.00  0.00    -0.214 NA
BRANCH   4   3
ATOM      1  C   UNL     1      -4.947 -17.208  14.628  0.00  0.00    +0.020 A 
ATOM      2  C   UNL     1      -5.576 -18.263  15.389  0.00  0.00    +0.013 A 
ATOM      3  C   UNL     1      -6.969 -18.623  15.153  0.00  0.00    +0.019 A 
ATOM     38  C   UNL     1      -7.703 -17.890  14.132  0.00  0.00    +0.120 A 
ATOM     39  N   UNL     1      -7.071 -16.878  13.416  0.00  0.00    -0.263 NA
ATOM     40  C   UNL     1      -5.732 -16.522  13.635  0.00  0.00    +0.111 A 
ENDBRANCH   4   3
ENDBRANCH  10   9
BRANCH  12  13
ATOM     13  N   UNL     1     -12.536 -26.064  15.407  0.00  0.00    -0.281 N 
ATOM     14  C   UNL     1     -13.648 -26.877  15.255  0.00  0.00    +0.248 C 
ATOM     30  O   UNL     1     -14.726 -26.682  15.796  0.00  0.00    -0.270 OA
ATOM     31  H   UNL     1     -11.654 -26.442  15.064  0.00  0.00    +0.155 HD
BRANCH  14  15
ATOM     15  C   UNL     1     -13.541 -28.090  14.389  0.00  0.00    +0.037 A 
ATOM     16  C   UNL     1     -13.327 -27.976  12.944  0.00  0.00    +0.013 A 
ATOM     17  C   UNL     1     -13.245 -29.162  12.129  0.00  0.00    +0.005 A 
ATOM     18  C   UNL     1     -13.376 -30.474  12.759  0.00  0.00    -0.033 A 
ATOM     28  C   UNL     1     -13.583 -30.559  14.195  0.00  0.00    +0.005 A 
ATOM     29  C   UNL     1     -13.665 -29.398  14.997  0.00  0.00    +0.013 A 
BRANCH  18  19
ATOM     19  C   UNL     1     -13.323 -31.792  11.964  0.00  0.00    +0.119 C 
BRANCH  19  20
ATOM     20  N   UNL     1     -14.556 -32.635  11.953  0.00  0.00    -0.302 NA
ATOM     21  C   UNL     1     -14.524 -33.713  13.040  0.00  0.00    +0.066 C 
ATOM     22  C   UNL     1     -15.832 -34.570  13.029  0.00  0.00    -0.064 C 
ATOM     23  N   UNL     1     -16.014 -35.200  11.647  0.00  0.00    +0.379 N 
ATOM     24  C   UNL     1     -17.211 -36.053  11.650  0.00  0.00    -0.096 C 
ATOM     25  H   UNL     1     -15.132 -35.854  11.455  0.00  0.00    -0.082 HD
ATOM     26  C   UNL     1     -16.043 -34.135  10.559  0.00  0.00    -0.064 C 
ATOM     27  C   UNL     1     -14.753 -33.270  10.598  0.00  0.00    +0.066 C 
ENDBRANCH  19  20
ENDBRANCH  18  19
ENDBRANCH  14  15
ENDBRANCH  12  13
TORSDOF 6
ENDMDL
MODEL 4
REMARK VINA RESULT:      -8.0     10.084     15.385
REMARK  Name = C:\Users\Docking\Desktop\test protocol\1iep_ligandH.pdb
REMARK  8 active torsions:
REMARK  status: ('A' for Active; 'I' for Inactive)
REMARK    1  A    between atoms: _5  and  _11
REMARK    2  A    between atoms: _19  and  _21
REMARK    3  A    between atoms: _22  and  _66
REMARK    4  A    between atoms: _27  and  _30
REMARK    5  A    between atoms: _32  and  _33
REMARK    6  A    between atoms: _38  and  _43
REMARK    7  A    between atoms: _43  and  _46
REMARK    8  A    between atoms: _53  and  _55
REMARK                            x       y       z     vdW  Elec       q    Type
REMARK                         _______ _______ _______ _____ _____    ______ ____
ROOT
ATOM     10  C   UNL     1     -10.432 -23.802  16.462  0.00  0.00    +0.038 A 
ATOM     11  C   UNL     1     -10.218 -22.689  15.610  0.00  0.00    +0.047 A 
ATOM     12  C   UNL     1      -9.772 -21.410  16.139  0.00  0.00    +0.035 A 
ATOM     32  C   UNL     1      -9.551 -21.300  17.543  0.00  0.00    +0.024 A 
ATOM     33  C   UNL     1      -9.765 -22.421  18.425  0.00  0.00    +0.007 A 
ATOM     34  C   UNL     1     -10.207 -23.684  17.908  0.00  0.00    -0.029 A 
ATOM     35  C   UNL     1     -10.426 -24.850  18.901  0.00  0.00    +0.045 C 
ENDROOT
BRANCH  10   9
ATOM      4  C   UNL     1     -13.864 -26.961  15.331  0.00  0.00    +0.077 A 
ATOM      5  C   UNL     1     -14.886 -26.156  15.935  0.00  0.00    +0.048 A 
ATOM      6  C   UNL     1     -14.486 -24.940  16.532  0.00  0.00    +0.116 A 
ATOM      7  N   UNL     1     -13.160 -24.566  16.520  0.00  0.00    -0.223 NA
ATOM      8  C   UNL     1     -12.199 -25.367  15.931  0.00  0.00    +0.220 A 
ATOM      9  N   UNL     1     -10.860 -25.007  15.900  0.00  0.00    -0.283 N 
ATOM     36  H   UNL     1     -10.181 -25.628  15.462  0.00  0.00    +0.155 HD
ATOM     37  N   UNL     1     -12.555 -26.534  15.355  0.00  0.00    -0.214 NA
BRANCH   4   3
ATOM      1  C   UNL     1     -14.970 -30.650  14.646  0.00  0.00    +0.020 A 
ATOM      2  C   UNL     1     -14.735 -29.407  15.343  0.00  0.00    +0.013 A 
ATOM      3  C   UNL     1     -14.129 -28.272  14.658  0.00  0.00    +0.019 A 
ATOM     38  C   UNL     1     -13.772 -28.429  13.256  0.00  0.00    +0.120 A 
ATOM     39  N   UNL     1     -14.009 -29.639  12.611  0.00  0.00    -0.263 NA
ATOM     40  C   UNL     1     -14.590 -30.738  13.261  0.00  0.00    +0.111 A 
ENDBRANCH   4   3
ENDBRANCH  10   9
BRANCH  12  13
ATOM     13  N   UNL     1      -9.546 -20.243  15.323  0.00  0.00    -0.281 N 
ATOM     14  C   UNL     1     -10.294 -19.078  15.277  0.00  0.00    +0.248 C 
ATOM     30  O   UNL     1     -11.401 -18.947  15.778  0.00  0.00    -0.270 OA
ATOM     31  H   UNL     1      -8.736 -20.280  14.704  0.00  0.00    +0.155 HD
BRANCH  14  15
ATOM     15  C   UNL     1      -9.739 -17.892  14.557  0.00  0.00    +0.037 A 
ATOM     16  C   UNL     1      -8.294 -17.675  14.451  0.00  0.00    +0.013 A 
ATOM     17  C   UNL     1      -7.785 -16.513  13.766  0.00  0.00    +0.005 A 
ATOM     18  C   UNL     1      -8.724 -15.559  13.180  0.00  0.00    -0.033 A 
ATOM     28  C   UNL     1     -10.152 -15.801  13.296  0.00  0.00    +0.005 A 
ATOM     29  C   UNL     1     -10.655 -16.938  13.967  0.00  0.00    +0.013 A 
BRANCH  18  19
ATOM     19  C   UNL     1      -8.271 -14.281  12.450  0.00  0.00    +0.119 C 
BRANCH  19  20
ATOM     20  N   UNL     1      -6.825 -14.174  12.091  0.00  0.00    -0.302 NA
ATOM     21  C   UNL     1      -6.117 -13.071  12.882  0.00  0.00    +0.066 C 
ATOM     22  C   UNL     1      -4.600 -12.988  12.511  0.00  0.00    -0.064 C 
ATOM     23  N   UNL     1      -4.458 -12.753  11.006  0.00  0.00    +0.379 N 
ATOM     24  C   UNL     1      -3.035 -12.617  10.663  0.00  0.00    -0.096 C 
ATOM     25  H   UNL     1      -4.958 -11.785  10.767  0.00  0.00    -0.082 HD
ATOM     26  C   UNL     1      -5.162 -13.845  10.212  0.00  0.00    -0.064 C 
ATOM     27  C   UNL     1      -6.662 -13.938  10.610  0.00  0.00    +0.066 C 
ENDBRANCH  19  20
ENDBRANCH  18  19
ENDBRANCH  14  15
ENDBRANCH  12  13
TORSDOF 6
ENDMDL
MODEL 5
REMARK VINA RESULT:      -8.0     20.280     26.754
REMARK  Name = C:\Users\Docking\Desktop\test protocol\1iep_ligandH.pdb
REMARK  8 active torsions:
REMARK  status: ('A' for Active; 'I' for Inactive)
REMARK    1  A    between atoms: _5  and  _11
REMARK    2  A    between atoms: _19  and  _21
REMARK    3  A    between atoms: _22  and  _66
REMARK    4  A    between atoms: _27  and  _30
REMARK    5  A    between atoms: _32  and  _33
REMARK    6  A    between atoms: _38  and  _43
REMARK    7  A    between atoms: _43  and  _46
REMARK    8  A    between atoms: _53  and  _55
REMARK                            x       y       z     vdW  Elec       q    Type
REMARK                         _______ _______ _______ _____ _____    ______ ____
ROOT
ATOM     10  C   UNL     1     -14.655 -30.614  13.031  0.00  0.00    +0.038 A 
ATOM     11  C   UNL     1     -15.131 -31.171  14.246  0.00  0.00    +0.047 A 
ATOM     12  C   UNL     1     -15.109 -30.407  15.484  0.00  0.00    +0.035 A 
ATOM     32  C   UNL     1     -14.599 -29.077  15.447  0.00  0.00    +0.024 A 
ATOM     33  C   UNL     1     -14.111 -28.495  14.222  0.00  0.00    +0.007 A 
ATOM     34  C   UNL     1     -14.128 -29.245  12.998  0.00  0.00    -0.029 A 
ATOM     35  C   UNL     1     -13.586 -28.573  11.715  0.00  0.00    +0.045 C 
ENDROOT
BRANCH  10   9
ATOM      4  C   UNL     1     -12.972 -34.125  10.225  0.00  0.00    +0.077 A 
ATOM      5  C   UNL     1     -11.899 -34.415  11.131  0.00  0.00    +0.048 A 
ATOM      6  C   UNL     1     -11.811 -33.633  12.304  0.00  0.00    +0.116 A 
ATOM      7  N   UNL     1     -12.733 -32.638  12.544  0.00  0.00    -0.223 NA
ATOM      8  C   UNL     1     -13.756 -32.383  11.648  0.00  0.00    +0.220 A 
ATOM      9  N   UNL     1     -14.699 -31.393  11.873  0.00  0.00    -0.283 N 
ATOM     36  H   UNL     1     -15.434 -31.231  11.184  0.00  0.00    +0.155 HD
ATOM     37  N   UNL     1     -13.861 -33.115  10.520  0.00  0.00    -0.214 NA
BRANCH   4   3
ATOM      1  C   UNL     1     -12.768 -35.282   6.494  0.00  0.00    +0.020 A 
ATOM      2  C   UNL     1     -12.512 -34.534   7.703  0.00  0.00    +0.013 A 
ATOM      3  C   UNL     1     -13.201 -34.866   8.944  0.00  0.00    +0.019 A 
ATOM     38  C   UNL     1     -14.149 -35.970   8.927  0.00  0.00    +0.120 A 
ATOM     39  N   UNL     1     -14.377 -36.671   7.747  0.00  0.00    -0.263 NA
ATOM     40  C   UNL     1     -13.721 -36.359   6.547  0.00  0.00    +0.111 A 
ENDBRANCH   4   3
ENDBRANCH  10   9
BRANCH  12  13
ATOM     13  N   UNL     1     -15.571 -30.923  16.748  0.00  0.00    -0.281 N 
ATOM     14  C   UNL     1     -16.849 -31.342  17.082  0.00  0.00    +0.248 C 
ATOM     30  O   UNL     1     -17.843 -31.136  16.403  0.00  0.00    -0.270 OA
ATOM     31  H   UNL     1     -14.871 -30.987  17.488  0.00  0.00    +0.155 HD
BRANCH  14  15
ATOM     15  C   UNL     1     -17.053 -32.085  18.363  0.00  0.00    +0.037 A 
ATOM     16  C   UNL     1     -17.708 -33.395  18.385  0.00  0.00    +0.013 A 
ATOM     17  C   UNL     1     -17.909 -34.083  19.635  0.00  0.00    +0.005 A 
ATOM     18  C   UNL     1     -17.451 -33.461  20.876  0.00  0.00    -0.033 A 
ATOM     28  C   UNL     1     -16.799 -32.163  20.825  0.00  0.00    +0.005 A 
ATOM     29  C   UNL     1     -16.602 -31.486  19.601  0.00  0.00    +0.013 A 
BRANCH  18  19
ATOM     19  C   UNL     1     -17.642 -34.113  22.258  0.00  0.00    +0.119 C 
BRANCH  19  20
ATOM     20  N   UNL     1     -18.141 -33.241  23.363  0.00  0.00    -0.302 NA
ATOM     21  C   UNL     1     -17.113 -33.095  24.489  0.00  0.00    +0.066 C 
ATOM     22  C   UNL     1     -17.643 -32.161  25.625  0.00  0.00    -0.064 C 
ATOM     23  N   UNL     1     -18.962 -32.716  26.164  0.00  0.00    +0.379 N 
ATOM     24  C   UNL     1     -19.433 -31.872  27.272  0.00  0.00    -0.096 C 
ATOM     25  H   UNL     1     -18.759 -33.732  26.576  0.00  0.00    -0.082 HD
ATOM     26  C   UNL     1     -19.989 -32.867  25.051  0.00  0.00    -0.064 C 
ATOM     27  C   UNL     1     -19.441 -33.773  23.913  0.00  0.00    +0.066 C 
ENDBRANCH  19  20
ENDBRANCH  18  19
ENDBRANCH  14  15
ENDBRANCH  12  13
TORSDOF 6
ENDMDL
