MODEL 1
REMARK VINA RESULT:      -8.0      0.000      0.000
REMARK  Name = C:\Users\Docking\Desktop\test protocol\1iep_ligandH.pdb
REMARK  8 active torsions:
REMARK  status: ('A' for Active; 'I' for Inactive)
REMARK    1  A    between atoms: _5  and  _11
REMARK    2  A    between atoms: _19  and  _21
REMARK    3  A    between atoms: _22  and  _66
REMARK    4  A    between atoms: _27  and  _30
REMARK    5  A    between atoms: _32  and  _33
REMARK    6  A    between atoms: _38  and  _43
REMARK    7  A    between atoms: _43  and  _46
REMARK    8  A    between atoms: _53  and  _55
REMARK                            x       y       z     vdW  Elec       q    Type
REMARK                         _______ _______ _______ _____ _____    ______ ____
ROOT
ATOM     10  C   UNL     1       7.003  14.144  11.364  0.00  0.00    +0.038 A 
ATOM     11  C   UNL     1       7.133  15.082  12.420  0.00  0.00    +0.047 A 
ATOM     12  C   UNL     1       7.833  16.343  12.224  0.00  0.00    +0.035 A 
ATOM     32  C   UNL     1       8.385  16.617  10.939  0.00  0.00    +0.024 A 
ATOM     33  C   UNL     1       8.262  15.674   9.855  0.00  0.00    +0.007 A 
ATOM     34  C   UNL     1       7.575  14.428  10.042  0.00  0.00    -0.029 A 
ATOM     35  C   UNL     1       7.480  13.453   8.846  0.00  0.00    +0.045 C 
ENDROOT
BRANCH  10   9
ATOM      4  C   UNL     1       3.050  11.425  11.233  0.00  0.00    +0.077 A 
ATOM      5  C   UNL     1       2.270  12.481  10.656  0.00  0.00    +0.048 A 
ATOM      6  C   UNL     1       2.922  13.712  10.415  0.00  0.00    +0.116 A 
ATOM      7  N   UNL     1       4.255  13.862  10.731  0.00  0.00    -0.223 NA
ATOM      8  C   UNL     1       4.978  12.823  11.288  0.00  0.00    +0.220 A 
ATOM      9  N   UNL     1       6.321  12.950  11.607  0.00  0.00    -0.283 N 
ATOM     36  H   UNL     1       6.817  12.162  12.023  0.00  0.00    +0.155 HD
ATOM     37  N   UNL     1       4.378  11.639  11.530  0.00  0.00    -0.214 NA
BRANCH   4   3
ATOM      1  C   UNL     1       0.630   8.499  12.176  0.00  0.00    +0.020 A 
ATOM      2  C   UNL     1       1.107   9.832  11.885  0.00  0.00    +0.013 A 
ATOM      3  C   UNL     1       2.504  10.065  11.544  0.00  0.00    +0.019 A 
ATOM     38  C   UNL     1       3.401   8.920  11.505  0.00  0.00    +0.120 A 
ATOM     39  N   UNL     1       2.914   7.648  11.791  0.00  0.00    -0.263 NA
ATOM     40  C   UNL     1       1.572   7.412  12.123  0.00  0.00    +0.111 A 
ENDBRANCH   4   3
ENDBRANCH  10   9
BRANCH  12  13
ATOM     13  N   UNL     1       8.004  17.330  13.261  0.00  0.00    -0.281 N 
ATOM     14  C   UNL     1       9.024  17.416  14.195  0.00  0.00    +0.248 C 
ATOM     30  O   UNL     1       9.834  16.528  14.417  0.00  0.00    -0.270 OA
ATOM     31  H   UNL     1       7.287  18.053  13.313  0.00  0.00    +0.155 HD
BRANCH  14  15
ATOM     15  C   UNL     1       9.153  18.662  15.010  0.00  0.00    +0.037 A 
ATOM     16  C   UNL     1      10.299  18.873  15.898  0.00  0.00    +0.013 A 
ATOM     17  C   UNL     1      10.391  20.077  16.686  0.00  0.00    +0.005 A 
ATOM     18  C   UNL     1       9.333  21.079  16.588  0.00  0.00    -0.033 A 
ATOM     28  C   UNL     1       8.210  20.846  15.696  0.00  0.00    +0.005 A 
ATOM     29  C   UNL     1       8.116  19.667  14.922  0.00  0.00    +0.013 A 
BRANCH  18  19
ATOM     19  C   UNL     1       9.338  22.383  17.408  0.00  0.00    +0.119 C 
BRANCH  19  20
ATOM     20  N   UNL     1      10.402  23.383  17.096  0.00  0.00    -0.302 NA
ATOM     21  C   UNL     1      10.866  23.292  15.640  0.00  0.00    +0.066 C 
ATOM     22  C   UNL     1      11.964  24.360  15.324  0.00  0.00    -0.064 C 
ATOM     23  N   UNL     1      13.142  24.174  16.281  0.00  0.00    +0.379 N 
ATOM     24  C   UNL     1      14.200  25.139  15.949  0.00  0.00    -0.096 C 
ATOM     25  H   UNL     1      13.553  23.151  16.116  0.00  0.00    -0.082 HD
ATOM     26  C   UNL     1      12.689  24.261  17.732  0.00  0.00    -0.064 C 
ATOM     27  C   UNL     1      11.578  23.215  18.027  0.00  0.00    +0.066 C 
ENDBRANCH  19  20
ENDBRANCH  18  19
ENDBRANCH  14  15
ENDBRANCH  12  13
TORSDOF 6
ENDMDL
MODEL 2
REMARK VINA RESULT:      -7.9      1.582      2.004
REMARK  Name = C:\Users\Docking\Desktop\test protocol\1iep_ligandH.pdb
REMARK  8 active torsions:
REMARK  status: ('A' for Active; 'I' for Inactive)
REMARK    1  A    between atoms: _5  and  _11
REMARK    2  A    between atoms: _19  and  _21
REMARK    3  A    between atoms: _22  and  _66
REMARK    4  A    between atoms: _27  and  _30
REMARK    5  A    between atoms: _32  and  _33
REMARK    6  A    between atoms: _38  and  _43
REMARK    7  A    between atoms: _43  and  _46
REMARK    8  A    between atoms: _53  and  _55
REMARK                            x       y       z     vdW  Elec       q    Type
REMARK                         _______ _______ _______ _____ _____    ______ ____
ROOT
ATOM     10  C   UNL     1       6.762  14.081  11.170  0.00  0.00    +0.038 A 
ATOM     11  C   UNL     1       6.796  15.110  12.145  0.00  0.00    +0.047 A 
ATOM     12  C   UNL     1       7.454  16.379  11.875  0.00  0.00    +0.035 A 
ATOM     32  C   UNL     1       8.065  16.567  10.601  0.00  0.00    +0.024 A 
ATOM     33  C   UNL     1       8.040  15.530   9.599  0.00  0.00    +0.007 A 
ATOM     34  C   UNL     1       7.395  14.276   9.860  0.00  0.00    -0.029 A 
ATOM     35  C   UNL     1       7.405  13.198   8.751  0.00  0.00    +0.045 C 
ENDROOT
BRANCH  10   9
ATOM      4  C   UNL     1       2.884  11.253  11.230  0.00  0.00    +0.077 A 
ATOM      5  C   UNL     1       2.068  12.259  10.613  0.00  0.00    +0.048 A 
ATOM      6  C   UNL     1       2.683  13.492  10.302  0.00  0.00    +0.116 A 
ATOM      7  N   UNL     1       4.015  13.694  10.591  0.00  0.00    -0.223 NA
ATOM      8  C   UNL     1       4.773  12.704  11.189  0.00  0.00    +0.220 A 
ATOM      9  N   UNL     1       6.116  12.882  11.482  0.00  0.00    -0.283 N 
ATOM     36  H   UNL     1       6.639  12.130  11.930  0.00  0.00    +0.155 HD
ATOM     37  N   UNL     1       4.209  11.517  11.497  0.00  0.00    -0.214 NA
BRANCH   4   3
ATOM      1  C   UNL     1       0.552   8.311  12.330  0.00  0.00    +0.020 A 
ATOM      2  C   UNL     1       0.988   9.639  11.965  0.00  0.00    +0.013 A 
ATOM      3  C   UNL     1       2.379   9.897  11.616  0.00  0.00    +0.019 A 
ATOM     38  C   UNL     1       3.312   8.780  11.646  0.00  0.00    +0.120 A 
ATOM     39  N   UNL     1       2.864   7.512  12.002  0.00  0.00    -0.263 NA
ATOM     40  C   UNL     1       1.528   7.252  12.341  0.00  0.00    +0.111 A 
ENDBRANCH   4   3
ENDBRANCH  10   9
BRANCH  12  13
ATOM     13  N   UNL     1       7.529  17.459  12.829  0.00  0.00    -0.281 N 
ATOM     14  C   UNL     1       6.547  17.888  13.707  0.00  0.00    +0.248 C 
ATOM     30  O   UNL     1       5.376  17.543  13.657  0.00  0.00    -0.270 OA
ATOM     31  H   UNL     1       8.412  17.968  12.860  0.00  0.00    +0.155 HD
BRANCH  14  15
ATOM     15  C   UNL     1       6.917  18.850  14.789  0.00  0.00    +0.037 A 
ATOM     16  C   UNL     1       8.192  19.571  14.762  0.00  0.00    +0.013 A 
ATOM     17  C   UNL     1       8.532  20.481  15.827  0.00  0.00    +0.005 A 
ATOM     18  C   UNL     1       7.593  20.675  16.929  0.00  0.00    -0.033 A 
ATOM     28  C   UNL     1       6.333  19.951  16.929  0.00  0.00    +0.005 A 
ATOM     29  C   UNL     1       5.997  19.058  15.887  0.00  0.00    +0.013 A 
BRANCH  18  19
ATOM     19  C   UNL     1       7.882  21.610  18.119  0.00  0.00    +0.119 C 
BRANCH  19  20
ATOM     20  N   UNL     1       9.291  22.069  18.301  0.00  0.00    -0.302 NA
ATOM     21  C   UNL     1       9.686  22.140  19.779  0.00  0.00    +0.066 C 
ATOM     22  C   UNL     1      11.170  22.600  19.951  0.00  0.00    -0.064 C 
ATOM     23  N   UNL     1      11.362  23.958  19.273  0.00  0.00    +0.379 N 
ATOM     24  C   UNL     1      12.741  24.421  19.482  0.00  0.00    -0.096 C 
ATOM     25  H   UNL     1      10.681  24.685  19.775  0.00  0.00    -0.082 HD
ATOM     26  C   UNL     1      10.969  23.897  17.804  0.00  0.00    -0.064 C 
ATOM     27  C   UNL     1       9.502  23.410  17.643  0.00  0.00    +0.066 C 
ENDBRANCH  19  20
ENDBRANCH  18  19
ENDBRANCH  14  15
ENDBRANCH  12  13
TORSDOF 6
ENDMDL
MODEL 3
REMARK VINA RESULT:      -7.9      5.846     13.871
REMARK  Name = C:\Users\Docking\Desktop\test protocol\1iep_ligandH.pdb
REMARK  8 active torsions:
REMARK  status: ('A' for Active; 'I' for Inactive)
REMARK    1  A    between atoms: _5  and  _11
REMARK    2  A    between atoms: _19  and  _21
REMARK    3  A    between atoms: _22  and  _66
REMARK    4  A    between atoms: _27  and  _30
REMARK    5  A    between atoms: _32  and  _33
REMARK    6  A    between atoms: _38  and  _43
REMARK    7  A    between atoms: _43  and  _46
REMARK    8  A    between atoms: _53  and  _55
REMARK                            x       y       z     vdW  Elec       q    Type
REMARK                         _______ _______ _______ _____ _____    ______ ____
ROOT
ATOM     10  C   UNL     1       7.318  13.808   9.736  0.00  0.00    +0.038 A 
ATOM     11  C   UNL     1       6.587  12.648  10.098  0.00  0.00    +0.047 A 
ATOM     12  C   UNL     1       5.138  12.604   9.978  0.00  0.00    +0.035 A 
ATOM     32  C   UNL     1       4.466  13.760   9.483  0.00  0.00    +0.024 A 
ATOM     33  C   UNL     1       5.193  14.948   9.111  0.00  0.00    +0.007 A 
ATOM     34  C   UNL     1       6.622  14.998   9.230  0.00  0.00    -0.029 A 
ATOM     35  C   UNL     1       7.350  16.300   8.823  0.00  0.00    +0.045 C 
ENDROOT
BRANCH  10   9
ATOM      4  C   UNL     1      11.314  13.945  12.392  0.00  0.00    +0.077 A 
ATOM      5  C   UNL     1      10.569  14.080  13.611  0.00  0.00    +0.048 A 
ATOM      6  C   UNL     1       9.160  14.118  13.510  0.00  0.00    +0.116 A 
ATOM      7  N   UNL     1       8.552  14.026  12.277  0.00  0.00    -0.223 NA
ATOM      8  C   UNL     1       9.299  13.898  11.121  0.00  0.00    +0.220 A 
ATOM      9  N   UNL     1       8.708  13.796   9.871  0.00  0.00    -0.283 N 
ATOM     36  H   UNL     1       9.295  13.710   9.042  0.00  0.00    +0.155 HD
ATOM     37  N   UNL     1      10.646  13.861  11.190  0.00  0.00    -0.214 NA
BRANCH   4   3
ATOM      1  C   UNL     1      15.101  14.304  13.302  0.00  0.00    +0.020 A 
ATOM      2  C   UNL     1      13.662  14.384  13.406  0.00  0.00    +0.013 A 
ATOM      3  C   UNL     1      12.808  13.887  12.335  0.00  0.00    +0.019 A 
ATOM     38  C   UNL     1      13.447  13.309  11.162  0.00  0.00    +0.120 A 
ATOM     39  N   UNL     1      14.835  13.246  11.088  0.00  0.00    -0.263 NA
ATOM     40  C   UNL     1      15.667  13.723  12.112  0.00  0.00    +0.111 A 
ENDBRANCH   4   3
ENDBRANCH  10   9
BRANCH  12  13
ATOM     13  N   UNL     1       4.341  11.457  10.338  0.00  0.00    -0.281 N 
ATOM     14  C   UNL     1       3.927  11.071  11.602  0.00  0.00    +0.248 C 
ATOM     30  O   UNL     1       4.360  11.539  12.644  0.00  0.00    -0.270 OA
ATOM     31  H   UNL     1       4.047  10.858   9.567  0.00  0.00    +0.155 HD
BRANCH  14  15
ATOM     15  C   UNL     1       2.892  10.000  11.726  0.00  0.00    +0.037 A 
ATOM     16  C   UNL     1       1.469  10.328  11.848  0.00  0.00    +0.013 A 
ATOM     17  C   UNL     1       0.493   9.276  11.983  0.00  0.00    +0.005 A 
ATOM     18  C   UNL     1       0.937   7.885  11.997  0.00  0.00    -0.033 A 
ATOM     28  C   UNL     1       2.354   7.587  11.869  0.00  0.00    +0.005 A 
ATOM     29  C   UNL     1       3.314   8.615  11.737  0.00  0.00    +0.013 A 
BRANCH  18  19
ATOM     19  C   UNL     1      -0.032   6.699  12.159  0.00  0.00    +0.119 C 
BRANCH  19  20
ATOM     20  N   UNL     1      -0.362   5.913  10.933  0.00  0.00    -0.302 NA
ATOM     21  C   UNL     1       0.674   4.821  10.654  0.00  0.00    +0.066 C 
ATOM     22  C   UNL     1       0.301   3.994   9.381  0.00  0.00    -0.064 C 
ATOM     23  N   UNL     1       0.173   4.937   8.183  0.00  0.00    +0.379 N 
ATOM     24  C   UNL     1      -0.121   4.156   6.973  0.00  0.00    -0.096 C 
ATOM     25  H   UNL     1       1.161   5.432   8.035  0.00  0.00    -0.082 HD
ATOM     26  C   UNL     1      -0.854   6.028   8.453  0.00  0.00    -0.064 C 
ATOM     27  C   UNL     1      -0.490   6.825   9.737  0.00  0.00    +0.066 C 
ENDBRANCH  19  20
ENDBRANCH  18  19
ENDBRANCH  14  15
ENDBRANCH  12  13
TORSDOF 6
ENDMDL
MODEL 4
REMARK VINA RESULT:      -7.8      8.164     12.513
REMARK  Name = C:\Users\Docking\Desktop\test protocol\1iep_ligandH.pdb
REMARK  8 active torsions:
REMARK  status: ('A' for Active; 'I' for Inactive)
REMARK    1  A    between atoms: _5  and  _11
REMARK    2  A    between atoms: _19  and  _21
REMARK    3  A    between atoms: _22  and  _66
REMARK    4  A    between atoms: _27  and  _30
REMARK    5  A    between atoms: _32  and  _33
REMARK    6  A    between atoms: _38  and  _43
REMARK    7  A    between atoms: _43  and  _46
REMARK    8  A    between atoms: _53  and  _55
REMARK                            x       y       z     vdW  Elec       q    Type
REMARK                         _______ _______ _______ _____ _____    ______ ____
ROOT
ATOM     10  C   UNL     1      12.246  10.656   3.843  0.00  0.00    +0.038 A 
ATOM     11  C   UNL     1      11.246  11.330   4.590  0.00  0.00    +0.047 A 
ATOM     12  C   UNL     1      11.457  11.680   5.986  0.00  0.00    +0.035 A 
ATOM     32  C   UNL     1      12.700  11.331   6.590  0.00  0.00    +0.024 A 
ATOM     33  C   UNL     1      13.727  10.646   5.846  0.00  0.00    +0.007 A 
ATOM     34  C   UNL     1      13.524  10.296   4.469  0.00  0.00    -0.029 A 
ATOM     35  C   UNL     1      14.658   9.555   3.722  0.00  0.00    +0.045 C 
ENDROOT
BRANCH  10   9
ATOM      4  C   UNL     1      10.717   7.670   0.411  0.00  0.00    +0.077 A 
ATOM      5  C   UNL     1      10.429   6.633   1.359  0.00  0.00    +0.048 A 
ATOM      6  C   UNL     1      10.695   6.906   2.720  0.00  0.00    +0.116 A 
ATOM      7  N   UNL     1      11.211   8.128   3.093  0.00  0.00    -0.223 NA
ATOM      8  C   UNL     1      11.479   9.106   2.153  0.00  0.00    +0.220 A 
ATOM      9  N   UNL     1      11.990  10.345   2.506  0.00  0.00    -0.283 N 
ATOM     36  H   UNL     1      12.182  11.037   1.782  0.00  0.00    +0.155 HD
ATOM     37  N   UNL     1      11.235   8.869   0.847  0.00  0.00    -0.214 NA
BRANCH   4   3
ATOM      1  C   UNL     1       9.050   7.718  -3.127  0.00  0.00    +0.020 A 
ATOM      2  C   UNL     1       9.220   7.866  -1.700  0.00  0.00    +0.013 A 
ATOM      3  C   UNL     1      10.488   7.534  -1.062  0.00  0.00    +0.019 A 
ATOM     38  C   UNL     1      11.572   7.052  -1.904  0.00  0.00    +0.120 A 
ATOM     39  N   UNL     1      11.379   6.917  -3.275  0.00  0.00    -0.263 NA
ATOM     40  C   UNL     1      10.163   7.232  -3.900  0.00  0.00    +0.111 A 
ENDBRANCH   4   3
ENDBRANCH  10   9
BRANCH  12  13
ATOM     13  N   UNL     1      10.475  12.356   6.797  0.00  0.00    -0.281 N 
ATOM     14  C   UNL     1      10.108  13.691   6.754  0.00  0.00    +0.248 C 
ATOM     30  O   UNL     1      10.725  14.558   6.153  0.00  0.00    -0.270 OA
ATOM     31  H   UNL     1       9.991  11.780   7.487  0.00  0.00    +0.155 HD
BRANCH  14  15
ATOM     15  C   UNL     1       8.888  14.129   7.498  0.00  0.00    +0.037 A 
ATOM     16  C   UNL     1       8.423  15.518   7.444  0.00  0.00    +0.013 A 
ATOM     17  C   UNL     1       7.253  15.917   8.185  0.00  0.00    +0.005 A 
ATOM     18  C   UNL     1       6.538  14.926   8.985  0.00  0.00    -0.033 A 
ATOM     28  C   UNL     1       7.018  13.554   9.015  0.00  0.00    +0.005 A 
ATOM     29  C   UNL     1       8.165  13.159   8.292  0.00  0.00    +0.013 A 
BRANCH  18  19
ATOM     19  C   UNL     1       5.292  15.268   9.823  0.00  0.00    +0.119 C 
BRANCH  19  20
ATOM     20  N   UNL     1       4.696  14.170  10.641  0.00  0.00    -0.302 NA
ATOM     21  C   UNL     1       3.369  13.675  10.059  0.00  0.00    +0.066 C 
ATOM     22  C   UNL     1       2.771  12.511  10.914  0.00  0.00    -0.064 C 
ATOM     23  N   UNL     1       2.585  12.985  12.357  0.00  0.00    +0.379 N 
ATOM     24  C   UNL     1       1.969  11.912  13.150  0.00  0.00    -0.096 C 
ATOM     25  H   UNL     1       1.876  13.845  12.341  0.00  0.00    -0.082 HD
ATOM     26  C   UNL     1       3.899  13.482  12.943  0.00  0.00    -0.064 C 
ATOM     27  C   UNL     1       4.500  14.618  12.069  0.00  0.00    +0.066 C 
ENDBRANCH  19  20
ENDBRANCH  18  19
ENDBRANCH  14  15
ENDBRANCH  12  13
TORSDOF 6
ENDMDL
MODEL 5
REMARK VINA RESULT:      -7.8      2.566     13.916
REMARK  Name = C:\Users\Docking\Desktop\test protocol\1iep_ligandH.pdb
REMARK  8 active torsions:
REMARK  status: ('A' for Active; 'I' for Inactive)
REMARK    1  A    between atoms: _5  and  _11
REMARK    2  A    between atoms: _19  and  _21
REMARK    3  A    between atoms: _22  and  _66
REMARK    4  A    between atoms: _27  and  _30
REMARK    5  A    between atoms: _32  and  _33
REMARK    6  A    between atoms: _38  and  _43
REMARK    7  A    between atoms: _43  and  _46
REMARK    8  A    between atoms: _53  and  _55
REMARK                            x       y       z     vdW  Elec       q    Type
REMARK                         _______ _______ _______ _____ _____    ______ ____
ROOT
ATOM     10  C   UNL     1       6.779  15.026  11.133  0.00  0.00    +0.038 A 
ATOM     11  C   UNL     1       5.948  14.004  11.659  0.00  0.00    +0.047 A 
ATOM     12  C   UNL     1       5.665  12.797  10.897  0.00  0.00    +0.035 A 
ATOM     32  C   UNL     1       6.248  12.664   9.603  0.00  0.00    +0.024 A 
ATOM     33  C   UNL     1       7.094  13.694   9.052  0.00  0.00    +0.007 A 
ATOM     34  C   UNL     1       7.374  14.887   9.799  0.00  0.00    -0.029 A 
ATOM     35  C   UNL     1       8.283  15.961   9.156  0.00  0.00    +0.045 C 
ENDROOT
BRANCH  10   9
ATOM      4  C   UNL     1       9.278  17.448  14.439  0.00  0.00    +0.077 A 
ATOM      5  C   UNL     1      10.169  16.344  14.659  0.00  0.00    +0.048 A 
ATOM      6  C   UNL     1       9.945  15.170  13.907  0.00  0.00    +0.116 A 
ATOM      7  N   UNL     1       8.905  15.113  13.004  0.00  0.00    -0.223 NA
ATOM      8  C   UNL     1       8.064  16.195  12.817  0.00  0.00    +0.220 A 
ATOM      9  N   UNL     1       7.017  16.163  11.909  0.00  0.00    -0.283 N 
ATOM     36  H   UNL     1       6.415  16.979  11.805  0.00  0.00    +0.155 HD
ATOM     37  N   UNL     1       8.256  17.328  13.524  0.00  0.00    -0.214 NA
BRANCH   4   3
ATOM      1  C   UNL     1       8.527  21.048  15.770  0.00  0.00    +0.020 A 
ATOM      2  C   UNL     1       8.374  19.801  15.058  0.00  0.00    +0.013 A 
ATOM      3  C   UNL     1       9.388  18.758  15.155  0.00  0.00    +0.019 A 
ATOM     38  C   UNL     1      10.553  19.011  15.989  0.00  0.00    +0.120 A 
ATOM     39  N   UNL     1      10.674  20.222  16.662  0.00  0.00    -0.263 NA
ATOM     40  C   UNL     1       9.706  21.234  16.574  0.00  0.00    +0.111 A 
ENDBRANCH   4   3
ENDBRANCH  10   9
BRANCH  12  13
ATOM     13  N   UNL     1       4.823  11.730  11.376  0.00  0.00    -0.281 N 
ATOM     14  C   UNL     1       3.439  11.668  11.368  0.00  0.00    +0.248 C 
ATOM     30  O   UNL     1       2.706  12.619  11.142  0.00  0.00    -0.270 OA
ATOM     31  H   UNL     1       5.306  10.921  11.768  0.00  0.00    +0.155 HD
BRANCH  14  15
ATOM     15  C   UNL     1       2.773  10.364  11.669  0.00  0.00    +0.037 A 
ATOM     16  C   UNL     1       3.497   9.096  11.554  0.00  0.00    +0.013 A 
ATOM     17  C   UNL     1       2.826   7.852  11.834  0.00  0.00    +0.005 A 
ATOM     18  C   UNL     1       1.421   7.870  12.234  0.00  0.00    -0.033 A 
ATOM     28  C   UNL     1       0.728   9.143  12.345  0.00  0.00    +0.005 A 
ATOM     29  C   UNL     1       1.382  10.364  12.071  0.00  0.00    +0.013 A 
BRANCH  18  19
ATOM     19  C   UNL     1       0.619   6.589  12.532  0.00  0.00    +0.119 C 
BRANCH  19  20
ATOM     20  N   UNL     1       0.155   5.785  11.362  0.00  0.00    -0.302 NA
ATOM     21  C   UNL     1       1.186   4.734  10.942  0.00  0.00    +0.066 C 
ATOM     22  C   UNL     1       0.675   3.887   9.731  0.00  0.00    -0.064 C 
ATOM     23  N   UNL     1       0.347   4.819   8.564  0.00  0.00    +0.379 N 
ATOM     24  C   UNL     1      -0.079   4.021   7.404  0.00  0.00    -0.096 C 
ATOM     25  H   UNL     1       1.284   5.352   8.282  0.00  0.00    -0.082 HD
ATOM     26  C   UNL     1      -0.676   5.869   8.973  0.00  0.00    -0.064 C 
ATOM     27  C   UNL     1      -0.171   6.686  10.195  0.00  0.00    +0.066 C 
ENDBRANCH  19  20
ENDBRANCH  18  19
ENDBRANCH  14  15
ENDBRANCH  12  13
TORSDOF 6
ENDMDL
