MODEL 1
REMARK VINA RESULT:      -9.0      0.000      0.000
REMARK  Name = C:\Users\Docking\Desktop\test protocol\1iep_ligandH.pdb
REMARK  8 active torsions:
REMARK  status: ('A' for Active; 'I' for Inactive)
REMARK    1  A    between atoms: _5  and  _11
REMARK    2  A    between atoms: _19  and  _21
REMARK    3  A    between atoms: _22  and  _66
REMARK    4  A    between atoms: _27  and  _30
REMARK    5  A    between atoms: _32  and  _33
REMARK    6  A    between atoms: _38  and  _43
REMARK    7  A    between atoms: _43  and  _46
REMARK    8  A    between atoms: _53  and  _55
REMARK                            x       y       z     vdW  Elec       q    Type
REMARK                         _______ _______ _______ _____ _____    ______ ____
ROOT
ATOM     10  C   UNL     1     -15.885 -37.404  16.130  0.00  0.00    +0.038 A 
ATOM     11  C   UNL     1     -17.131 -37.452  15.455  0.00  0.00    +0.047 A 
ATOM     12  C   UNL     1     -17.801 -38.718  15.201  0.00  0.00    +0.035 A 
ATOM     32  C   UNL     1     -17.173 -39.916  15.650  0.00  0.00    +0.024 A 
ATOM     33  C   UNL     1     -15.905 -39.886  16.337  0.00  0.00    +0.007 A 
ATOM     34  C   UNL     1     -15.239 -38.640  16.588  0.00  0.00    -0.029 A 
ATOM     35  C   UNL     1     -13.879 -38.667  17.323  0.00  0.00    +0.045 C 
ENDROOT
BRANCH  10   9
ATOM      4  C   UNL     1     -14.380 -33.107  14.610  0.00  0.00    +0.077 A 
ATOM      5  C   UNL     1     -14.796 -33.372  13.263  0.00  0.00    +0.048 A 
ATOM      6  C   UNL     1     -15.386 -34.628  13.002  0.00  0.00    +0.116 A 
ATOM      7  N   UNL     1     -15.544 -35.544  14.019  0.00  0.00    -0.223 NA
ATOM      8  C   UNL     1     -15.130 -35.258  15.307  0.00  0.00    +0.220 A 
ATOM      9  N   UNL     1     -15.287 -36.160  16.347  0.00  0.00    -0.283 N 
ATOM     36  H   UNL     1     -14.961 -35.914  17.282  0.00  0.00    +0.155 HD
ATOM     37  N   UNL     1     -14.562 -34.065  15.582  0.00  0.00    -0.214 NA
BRANCH   4   3
ATOM      1  C   UNL     1     -11.831 -30.178  15.085  0.00  0.00    +0.020 A 
ATOM      2  C   UNL     1     -12.400 -31.428  14.638  0.00  0.00    +0.013 A 
ATOM      3  C   UNL     1     -13.742 -31.824  15.045  0.00  0.00    +0.019 A 
ATOM     38  C   UNL     1     -14.489 -30.924  15.911  0.00  0.00    +0.120 A 
ATOM     39  N   UNL     1     -13.915 -29.726  16.327  0.00  0.00    -0.263 NA
ATOM     40  C   UNL     1     -12.623 -29.336  15.943  0.00  0.00    +0.111 A 
ENDBRANCH   4   3
ENDBRANCH  10   9
BRANCH  12  13
ATOM     13  N   UNL     1     -19.063 -38.830  14.514  0.00  0.00    -0.281 N 
ATOM     14  C   UNL     1     -19.285 -39.176  13.191  0.00  0.00    +0.248 C 
ATOM     30  O   UNL     1     -18.413 -39.235  12.336  0.00  0.00    -0.270 OA
ATOM     31  H   UNL     1     -19.894 -38.630  15.070  0.00  0.00    +0.155 HD
BRANCH  14  15
ATOM     15  C   UNL     1     -20.679 -39.488  12.750  0.00  0.00    +0.037 A 
ATOM     16  C   UNL     1     -20.935 -40.312  11.565  0.00  0.00    +0.013 A 
ATOM     17  C   UNL     1     -22.289 -40.583  11.152  0.00  0.00    +0.005 A 
ATOM     18  C   UNL     1     -23.398 -40.031  11.926  0.00  0.00    -0.033 A 
ATOM     28  C   UNL     1     -23.115 -39.222  13.100  0.00  0.00    +0.005 A 
ATOM     29  C   UNL     1     -21.790 -38.953  13.507  0.00  0.00    +0.013 A 
BRANCH  18  19
ATOM     19  C   UNL     1     -24.874 -40.252  11.546  0.00  0.00    +0.119 C 
BRANCH  19  20
ATOM     20  N   UNL     1     -25.601 -41.357  12.240  0.00  0.00    -0.302 NA
ATOM     21  C   UNL     1     -25.726 -41.106  13.745  0.00  0.00    +0.066 C 
ATOM     22  C   UNL     1     -26.508 -42.261  14.452  0.00  0.00    -0.064 C 
ATOM     23  N   UNL     1     -25.803 -43.591  14.181  0.00  0.00    +0.379 N 
ATOM     24  C   UNL     1     -26.503 -44.671  14.892  0.00  0.00    -0.096 C 
ATOM     25  H   UNL     1     -24.773 -43.520  14.603  0.00  0.00    -0.082 HD
ATOM     26  C   UNL     1     -25.671 -43.847  12.686  0.00  0.00    -0.064 C 
ATOM     27  C   UNL     1     -24.918 -42.680  11.990  0.00  0.00    +0.066 C 
ENDBRANCH  19  20
ENDBRANCH  18  19
ENDBRANCH  14  15
ENDBRANCH  12  13
TORSDOF 6
ENDMDL
MODEL 2
REMARK VINA RESULT:      -9.0     12.872     20.072
REMARK  Name = C:\Users\Docking\Desktop\test protocol\1iep_ligandH.pdb
REMARK  8 active torsions:
REMARK  status: ('A' for Active; 'I' for Inactive)
REMARK    1  A    between atoms: _5  and  _11
REMARK    2  A    between atoms: _19  and  _21
REMARK    3  A    between atoms: _22  and  _66
REMARK    4  A    between atoms: _27  and  _30
REMARK    5  A    between atoms: _32  and  _33
REMARK    6  A    between atoms: _38  and  _43
REMARK    7  A    between atoms: _43  and  _46
REMARK    8  A    between atoms: _53  and  _55
REMARK                            x       y       z     vdW  Elec       q    Type
REMARK                         _______ _______ _______ _____ _____    ______ ____
ROOT
ATOM     10  C   UNL     1      -6.298 -42.132  14.365  0.00  0.00    +0.038 A 
ATOM     11  C   UNL     1      -4.929 -42.185  14.731  0.00  0.00    +0.047 A 
ATOM     12  C   UNL     1      -4.004 -41.132  14.341  0.00  0.00    +0.035 A 
ATOM     32  C   UNL     1      -4.509 -40.037  13.581  0.00  0.00    +0.024 A 
ATOM     33  C   UNL     1      -5.897 -39.967  13.200  0.00  0.00    +0.007 A 
ATOM     34  C   UNL     1      -6.814 -41.005  13.579  0.00  0.00    -0.029 A 
ATOM     35  C   UNL     1      -8.290 -40.881  13.137  0.00  0.00    +0.045 C 
ENDROOT
BRANCH  10   9
ATOM      4  C   UNL     1      -9.073 -44.316  17.616  0.00  0.00    +0.077 A 
ATOM      5  C   UNL     1      -8.798 -43.317  18.608  0.00  0.00    +0.048 A 
ATOM      6  C   UNL     1      -7.931 -42.262  18.244  0.00  0.00    +0.116 A 
ATOM      7  N   UNL     1      -7.387 -42.218  16.979  0.00  0.00    -0.223 NA
ATOM      8  C   UNL     1      -7.671 -43.199  16.046  0.00  0.00    +0.220 A 
ATOM      9  N   UNL     1      -7.141 -43.171  14.766  0.00  0.00    -0.283 N 
ATOM     36  H   UNL     1      -7.370 -43.916  14.109  0.00  0.00    +0.155 HD
ATOM     37  N   UNL     1      -8.495 -44.217  16.370  0.00  0.00    -0.214 NA
BRANCH   4   3
ATOM      1  C   UNL     1     -10.884 -47.762  17.238  0.00  0.00    +0.020 A 
ATOM      2  C   UNL     1      -9.997 -46.653  16.969  0.00  0.00    +0.013 A 
ATOM      3  C   UNL     1      -9.971 -45.491  17.848  0.00  0.00    +0.019 A 
ATOM     38  C   UNL     1     -10.860 -45.482  19.000  0.00  0.00    +0.120 A 
ATOM     39  N   UNL     1     -11.704 -46.563  19.233  0.00  0.00    -0.263 NA
ATOM     40  C   UNL     1     -11.739 -47.687  18.393  0.00  0.00    +0.111 A 
ENDBRANCH   4   3
ENDBRANCH  10   9
BRANCH  12  13
ATOM     13  N   UNL     1      -2.602 -41.136  14.677  0.00  0.00    -0.281 N 
ATOM     14  C   UNL     1      -1.531 -40.799  13.865  0.00  0.00    +0.248 C 
ATOM     30  O   UNL     1      -1.602 -40.646  12.655  0.00  0.00    -0.270 OA
ATOM     31  H   UNL     1      -2.370 -41.423  15.628  0.00  0.00    +0.155 HD
BRANCH  14  15
ATOM     15  C   UNL     1      -0.183 -40.620  14.486  0.00  0.00    +0.037 A 
ATOM     16  C   UNL     1       0.287 -41.507  15.553  0.00  0.00    +0.013 A 
ATOM     17  C   UNL     1       1.584 -41.302  16.146  0.00  0.00    +0.005 A 
ATOM     18  C   UNL     1       2.423 -40.203  15.672  0.00  0.00    -0.033 A 
ATOM     28  C   UNL     1       1.934 -39.341  14.608  0.00  0.00    +0.005 A 
ATOM     29  C   UNL     1       0.662 -39.539  14.025  0.00  0.00    +0.013 A 
BRANCH  18  19
ATOM     19  C   UNL     1       3.812 -39.896  16.261  0.00  0.00    +0.119 C 
BRANCH  19  20
ATOM     20  N   UNL     1       3.891 -38.836  17.310  0.00  0.00    -0.302 NA
ATOM     21  C   UNL     1       2.670 -38.850  18.234  0.00  0.00    +0.066 C 
ATOM     22  C   UNL     1       2.779 -37.749  19.338  0.00  0.00    -0.064 C 
ATOM     23  N   UNL     1       2.942 -36.380  18.676  0.00  0.00    +0.379 N 
ATOM     24  C   UNL     1       2.987 -35.336  19.710  0.00  0.00    -0.096 C 
ATOM     25  H   UNL     1       2.037 -36.197  18.050  0.00  0.00    -0.082 HD
ATOM     26  C   UNL     1       4.152 -36.358  17.753  0.00  0.00    -0.064 C 
ATOM     27  C   UNL     1       4.047 -37.475  16.677  0.00  0.00    +0.066 C 
ENDBRANCH  19  20
ENDBRANCH  18  19
ENDBRANCH  14  15
ENDBRANCH  12  13
TORSDOF 6
ENDMDL
MODEL 3
REMARK VINA RESULT:      -8.8     34.332     36.203
REMARK  Name = C:\Users\Docking\Desktop\test protocol\1iep_ligandH.pdb
REMARK  8 active torsions:
REMARK  status: ('A' for Active; 'I' for Inactive)
REMARK    1  A    between atoms: _5  and  _11
REMARK    2  A    between atoms: _19  and  _21
REMARK    3  A    between atoms: _22  and  _66
REMARK    4  A    between atoms: _27  and  _30
REMARK    5  A    between atoms: _32  and  _33
REMARK    6  A    between atoms: _38  and  _43
REMARK    7  A    between atoms: _43  and  _46
REMARK    8  A    between atoms: _53  and  _55
REMARK                            x       y       z     vdW  Elec       q    Type
REMARK                         _______ _______ _______ _____ _____    ______ ____
ROOT
ATOM     10  C   UNL     1       5.221 -57.372  -3.226  0.00  0.00    +0.038 A 
ATOM     11  C   UNL     1       5.218 -58.529  -2.405  0.00  0.00    +0.047 A 
ATOM     12  C   UNL     1       5.764 -59.790  -2.880  0.00  0.00    +0.035 A 
ATOM     32  C   UNL     1       6.309 -59.838  -4.197  0.00  0.00    +0.024 A 
ATOM     33  C   UNL     1       6.319 -58.672  -5.045  0.00  0.00    +0.007 A 
ATOM     34  C   UNL     1       5.779 -57.425  -4.583  0.00  0.00    -0.029 A 
ATOM     35  C   UNL     1       5.811 -56.209  -5.538  0.00  0.00    +0.045 C 
ENDROOT
BRANCH  10   9
ATOM      4  C   UNL     1       1.640 -54.212  -2.750  0.00  0.00    +0.077 A 
ATOM      5  C   UNL     1       0.776 -54.973  -3.605  0.00  0.00    +0.048 A 
ATOM      6  C   UNL     1       1.293 -56.168  -4.153  0.00  0.00    +0.116 A 
ATOM      7  N   UNL     1       2.581 -56.563  -3.860  0.00  0.00    -0.223 NA
ATOM      8  C   UNL     1       3.389 -55.805  -3.033  0.00  0.00    +0.220 A 
ATOM      9  N   UNL     1       4.684 -56.187  -2.719  0.00  0.00    -0.283 N 
ATOM     36  H   UNL     1       5.250 -55.596  -2.111  0.00  0.00    +0.155 HD
ATOM     37  N   UNL     1       2.918 -54.659  -2.498  0.00  0.00    -0.214 NA
BRANCH   4   3
ATOM      1  C   UNL     1      -0.356 -51.006  -1.730  0.00  0.00    +0.020 A 
ATOM      2  C   UNL     1      -0.014 -52.243  -2.393  0.00  0.00    +0.013 A 
ATOM      3  C   UNL     1       1.236 -52.929  -2.092  0.00  0.00    +0.019 A 
ATOM     38  C   UNL     1       2.125 -52.332  -1.106  0.00  0.00    +0.120 A 
ATOM     39  N   UNL     1       1.769 -51.139  -0.484  0.00  0.00    -0.263 NA
ATOM     40  C   UNL     1       0.569 -50.470  -0.767  0.00  0.00    +0.111 A 
ENDBRANCH   4   3
ENDBRANCH  10   9
BRANCH  12  13
ATOM     13  N   UNL     1       5.781 -60.999  -2.095  0.00  0.00    -0.281 N 
ATOM     14  C   UNL     1       4.752 -61.540  -1.341  0.00  0.00    +0.248 C 
ATOM     30  O   UNL     1       3.721 -60.949  -1.055  0.00  0.00    -0.270 OA
ATOM     31  H   UNL     1       6.658 -61.520  -2.095  0.00  0.00    +0.155 HD
BRANCH  14  15
ATOM     15  C   UNL     1       4.895 -62.932  -0.817  0.00  0.00    +0.037 A 
ATOM     16  C   UNL     1       3.803 -63.902  -0.930  0.00  0.00    +0.013 A 
ATOM     17  C   UNL     1       3.960 -65.234  -0.402  0.00  0.00    +0.005 A 
ATOM     18  C   UNL     1       5.217 -65.604   0.245  0.00  0.00    -0.033 A 
ATOM     28  C   UNL     1       6.286 -64.623   0.339  0.00  0.00    +0.005 A 
ATOM     29  C   UNL     1       6.135 -63.317  -0.178  0.00  0.00    +0.013 A 
BRANCH  18  19
ATOM     19  C   UNL     1       5.466 -66.995   0.856  0.00  0.00    +0.119 C 
BRANCH  19  20
ATOM     20  N   UNL     1       4.334 -67.969   0.822  0.00  0.00    -0.302 NA
ATOM     21  C   UNL     1       3.575 -68.015   2.151  0.00  0.00    +0.066 C 
ATOM     22  C   UNL     1       2.381 -69.022   2.090  0.00  0.00    -0.064 C 
ATOM     23  N   UNL     1       2.906 -70.410   1.718  0.00  0.00    +0.379 N 
ATOM     24  C   UNL     1       1.794 -71.371   1.717  0.00  0.00    -0.096 C 
ATOM     25  H   UNL     1       3.624 -70.724   2.511  0.00  0.00    -0.082 HD
ATOM     26  C   UNL     1       3.665 -70.373   0.399  0.00  0.00    -0.064 C 
ATOM     27  C   UNL     1       4.831 -69.347   0.460  0.00  0.00    +0.066 C 
ENDBRANCH  19  20
ENDBRANCH  18  19
ENDBRANCH  14  15
ENDBRANCH  12  13
TORSDOF 6
ENDMDL
MODEL 4
REMARK VINA RESULT:      -8.7     35.842     41.212
REMARK  Name = C:\Users\Docking\Desktop\test protocol\1iep_ligandH.pdb
REMARK  8 active torsions:
REMARK  status: ('A' for Active; 'I' for Inactive)
REMARK    1  A    between atoms: _5  and  _11
REMARK    2  A    between atoms: _19  and  _21
REMARK    3  A    between atoms: _22  and  _66
REMARK    4  A    between atoms: _27  and  _30
REMARK    5  A    between atoms: _32  and  _33
REMARK    6  A    between atoms: _38  and  _43
REMARK    7  A    between atoms: _43  and  _46
REMARK    8  A    between atoms: _53  and  _55
REMARK                            x       y       z     vdW  Elec       q    Type
REMARK                         _______ _______ _______ _____ _____    ______ ____
ROOT
ATOM     10  C   UNL     1      16.320 -31.536  35.212  0.00  0.00    +0.038 A 
ATOM     11  C   UNL     1      15.581 -32.204  36.221  0.00  0.00    +0.047 A 
ATOM     12  C   UNL     1      16.226 -33.132  37.137  0.00  0.00    +0.035 A 
ATOM     32  C   UNL     1      17.628 -33.353  36.999  0.00  0.00    +0.024 A 
ATOM     33  C   UNL     1      18.394 -32.682  35.978  0.00  0.00    +0.007 A 
ATOM     34  C   UNL     1      17.762 -31.768  35.070  0.00  0.00    -0.029 A 
ATOM     35  C   UNL     1      18.632 -31.082  33.991  0.00  0.00    +0.045 C 
ENDROOT
BRANCH  10   9
ATOM      4  C   UNL     1      13.971 -30.547  31.145  0.00  0.00    +0.077 A 
ATOM      5  C   UNL     1      14.115 -31.892  30.665  0.00  0.00    +0.048 A 
ATOM      6  C   UNL     1      14.807 -32.805  31.492  0.00  0.00    +0.116 A 
ATOM      7  N   UNL     1      15.312 -32.393  32.707  0.00  0.00    -0.223 NA
ATOM      8  C   UNL     1      15.157 -31.089  33.139  0.00  0.00    +0.220 A 
ATOM      9  N   UNL     1      15.649 -30.656  34.360  0.00  0.00    -0.283 N 
ATOM     36  H   UNL     1      15.521 -29.683  34.639  0.00  0.00    +0.155 HD
ATOM     37  N   UNL     1      14.501 -30.198  32.367  0.00  0.00    -0.214 NA
BRANCH   4   3
ATOM      1  C   UNL     1      12.963 -27.068  29.667  0.00  0.00    +0.020 A 
ATOM      2  C   UNL     1      13.682 -28.072  30.418  0.00  0.00    +0.013 A 
ATOM      3  C   UNL     1      13.263 -29.468  30.387  0.00  0.00    +0.019 A 
ATOM     38  C   UNL     1      12.103 -29.817  29.580  0.00  0.00    +0.120 A 
ATOM     39  N   UNL     1      11.430 -28.829  28.869  0.00  0.00    -0.263 NA
ATOM     40  C   UNL     1      11.824 -27.482  28.892  0.00  0.00    +0.111 A 
ENDBRANCH   4   3
ENDBRANCH  10   9
BRANCH  12  13
ATOM     13  N   UNL     1      15.526 -33.846  38.176  0.00  0.00    -0.281 N 
ATOM     14  C   UNL     1      15.172 -35.185  38.199  0.00  0.00    +0.248 C 
ATOM     30  O   UNL     1      15.217 -35.928  37.230  0.00  0.00    -0.270 OA
ATOM     31  H   UNL     1      15.259 -33.297  38.993  0.00  0.00    +0.155 HD
BRANCH  14  15
ATOM     15  C   UNL     1      14.685 -35.781  39.480  0.00  0.00    +0.037 A 
ATOM     16  C   UNL     1      13.380 -36.441  39.563  0.00  0.00    +0.013 A 
ATOM     17  C   UNL     1      12.926 -36.993  40.815  0.00  0.00    +0.005 A 
ATOM     18  C   UNL     1      13.780 -36.887  41.995  0.00  0.00    -0.033 A 
ATOM     28  C   UNL     1      15.073 -36.231  41.884  0.00  0.00    +0.005 A 
ATOM     29  C   UNL     1      15.520 -35.689  40.658  0.00  0.00    +0.013 A 
BRANCH  18  19
ATOM     19  C   UNL     1      13.368 -37.428  43.377  0.00  0.00    +0.119 C 
BRANCH  19  20
ATOM     20  N   UNL     1      12.901 -36.434  44.389  0.00  0.00    -0.302 NA
ATOM     21  C   UNL     1      13.082 -36.944  45.821  0.00  0.00    +0.066 C 
ATOM     22  C   UNL     1      12.609 -35.883  46.867  0.00  0.00    -0.064 C 
ATOM     23  N   UNL     1      11.146 -35.526  46.601  0.00  0.00    +0.379 N 
ATOM     24  C   UNL     1      10.681 -34.571  47.618  0.00  0.00    -0.096 C 
ATOM     25  H   UNL     1      10.545 -36.458  46.712  0.00  0.00    -0.082 HD
ATOM     26  C   UNL     1      10.956 -35.020  45.178  0.00  0.00    -0.064 C 
ATOM     27  C   UNL     1      11.457 -36.070  44.147  0.00  0.00    +0.066 C 
ENDBRANCH  19  20
ENDBRANCH  18  19
ENDBRANCH  14  15
ENDBRANCH  12  13
TORSDOF 6
ENDMDL
MODEL 5
REMARK VINA RESULT:      -8.7     35.163     37.993
REMARK  Name = C:\Users\Docking\Desktop\test protocol\1iep_ligandH.pdb
REMARK  8 active torsions:
REMARK  status: ('A' for Active; 'I' for Inactive)
REMARK    1  A    between atoms: _5  and  _11
REMARK    2  A    between atoms: _19  and  _21
REMARK    3  A    between atoms: _22  and  _66
REMARK    4  A    between atoms: _27  and  _30
REMARK    5  A    between atoms: _32  and  _33
REMARK    6  A    between atoms: _38  and  _43
REMARK    7  A    between atoms: _43  and  _46
REMARK    8  A    between atoms: _53  and  _55
REMARK                            x       y       z     vdW  Elec       q    Type
REMARK                         _______ _______ _______ _____ _____    ______ ____
ROOT
ATOM     10  C   UNL     1       2.912 -60.686   0.140  0.00  0.00    +0.038 A 
ATOM     11  C   UNL     1       3.425 -60.112  -1.051  0.00  0.00    +0.047 A 
ATOM     12  C   UNL     1       3.668 -58.681  -1.153  0.00  0.00    +0.035 A 
ATOM     32  C   UNL     1       3.378 -57.865  -0.021  0.00  0.00    +0.024 A 
ATOM     33  C   UNL     1       2.855 -58.432   1.197  0.00  0.00    +0.007 A 
ATOM     34  C   UNL     1       2.611 -59.842   1.302  0.00  0.00    -0.029 A 
ATOM     35  C   UNL     1       2.043 -60.394   2.630  0.00  0.00    +0.045 C 
ENDROOT
BRANCH  10   9
ATOM      4  C   UNL     1       4.499 -65.216   0.176  0.00  0.00    +0.077 A 
ATOM      5  C   UNL     1       5.868 -64.799   0.075  0.00  0.00    +0.048 A 
ATOM      6  C   UNL     1       6.121 -63.411   0.009  0.00  0.00    +0.116 A 
ATOM      7  N   UNL     1       5.075 -62.514   0.043  0.00  0.00    -0.223 NA
ATOM      8  C   UNL     1       3.766 -62.950   0.139  0.00  0.00    +0.220 A 
ATOM      9  N   UNL     1       2.698 -62.066   0.182  0.00  0.00    -0.283 N 
ATOM     36  H   UNL     1       1.747 -62.427   0.246  0.00  0.00    +0.155 HD
ATOM     37  N   UNL     1       3.498 -64.271   0.202  0.00  0.00    -0.214 NA
BRANCH   4   3
ATOM      1  C   UNL     1       3.997 -69.013  -0.617  0.00  0.00    +0.020 A 
ATOM      2  C   UNL     1       4.436 -67.642  -0.744  0.00  0.00    +0.013 A 
ATOM      3  C   UNL     1       4.072 -66.648   0.258  0.00  0.00    +0.019 A 
ATOM     38  C   UNL     1       3.258 -67.078   1.386  0.00  0.00    +0.120 A 
ATOM     39  N   UNL     1       2.849 -68.404   1.480  0.00  0.00    -0.263 NA
ATOM     40  C   UNL     1       3.192 -69.369   0.521  0.00  0.00    +0.111 A 
ENDBRANCH   4   3
ENDBRANCH  10   9
BRANCH  12  13
ATOM     13  N   UNL     1       4.180 -58.041  -2.339  0.00  0.00    -0.281 N 
ATOM     14  C   UNL     1       3.473 -57.340  -3.301  0.00  0.00    +0.248 C 
ATOM     30  O   UNL     1       2.254 -57.339  -3.400  0.00  0.00    -0.270 OA
ATOM     31  H   UNL     1       5.187 -58.112  -2.486  0.00  0.00    +0.155 HD
BRANCH  14  15
ATOM     15  C   UNL     1       4.228 -56.534  -4.308  0.00  0.00    +0.037 A 
ATOM     16  C   UNL     1       5.485 -57.019  -4.882  0.00  0.00    +0.013 A 
ATOM     17  C   UNL     1       6.202 -56.214  -5.839  0.00  0.00    +0.005 A 
ATOM     18  C   UNL     1       5.661 -54.915  -6.230  0.00  0.00    -0.033 A 
ATOM     28  C   UNL     1       4.409 -54.460  -5.649  0.00  0.00    +0.005 A 
ATOM     29  C   UNL     1       3.704 -55.245  -4.710  0.00  0.00    +0.013 A 
BRANCH  18  19
ATOM     19  C   UNL     1       6.370 -53.980  -7.228  0.00  0.00    +0.119 C 
BRANCH  19  20
ATOM     20  N   UNL     1       6.042 -54.150  -8.675  0.00  0.00    -0.302 NA
ATOM     21  C   UNL     1       7.218 -53.768  -9.579  0.00  0.00    +0.066 C 
ATOM     22  C   UNL     1       6.865 -53.973 -11.088  0.00  0.00    -0.064 C 
ATOM     23  N   UNL     1       5.624 -53.150 -11.436  0.00  0.00    +0.379 N 
ATOM     24  C   UNL     1       5.324 -53.296 -12.868  0.00  0.00    -0.096 C 
ATOM     25  H   UNL     1       5.866 -52.078 -11.248  0.00  0.00    -0.082 HD
ATOM     26  C   UNL     1       4.451 -53.523 -10.540  0.00  0.00    -0.064 C 
ATOM     27  C   UNL     1       4.822 -53.343  -9.041  0.00  0.00    +0.066 C 
ENDBRANCH  19  20
ENDBRANCH  18  19
ENDBRANCH  14  15
ENDBRANCH  12  13
TORSDOF 6
ENDMDL
