MODEL 1
REMARK VINA RESULT:     -10.0      0.000      0.000
REMARK  Name = C:\Users\Docking\Desktop\test protocol\1iep_ligandH.pdb
REMARK  8 active torsions:
REMARK  status: ('A' for Active; 'I' for Inactive)
REMARK    1  A    between atoms: _5  and  _11
REMARK    2  A    between atoms: _19  and  _21
REMARK    3  A    between atoms: _22  and  _66
REMARK    4  A    between atoms: _27  and  _30
REMARK    5  A    between atoms: _32  and  _33
REMARK    6  A    between atoms: _38  and  _43
REMARK    7  A    between atoms: _43  and  _46
REMARK    8  A    between atoms: _53  and  _55
REMARK                            x       y       z     vdW  Elec       q    Type
REMARK                         _______ _______ _______ _____ _____    ______ ____
ROOT
ATOM     10  C   UNL     1      23.931  41.096  -0.580  0.00  0.00    +0.038 A 
ATOM     11  C   UNL     1      22.598  40.683  -0.325  0.00  0.00    +0.047 A 
ATOM     12  C   UNL     1      21.470  41.550  -0.628  0.00  0.00    +0.035 A 
ATOM     32  C   UNL     1      21.736  42.831  -1.193  0.00  0.00    +0.024 A 
ATOM     33  C   UNL     1      23.084  43.268  -1.458  0.00  0.00    +0.007 A 
ATOM     34  C   UNL     1      24.201  42.418  -1.159  0.00  0.00    -0.029 A 
ATOM     35  C   UNL     1      25.625  42.941  -1.459  0.00  0.00    +0.045 C 
ENDROOT
BRANCH  10   9
ATOM      4  C   UNL     1      27.494  39.603   2.268  0.00  0.00    +0.077 A 
ATOM      5  C   UNL     1      27.272  40.668   3.203  0.00  0.00    +0.048 A 
ATOM      6  C   UNL     1      26.236  41.583   2.911  0.00  0.00    +0.116 A 
ATOM      7  N   UNL     1      25.484  41.434   1.766  0.00  0.00    -0.223 NA
ATOM      8  C   UNL     1      25.725  40.397   0.884  0.00  0.00    +0.220 A 
ATOM      9  N   UNL     1      24.976  40.224  -0.270  0.00  0.00    -0.283 N 
ATOM     36  H   UNL     1      25.190  39.450  -0.899  0.00  0.00    +0.155 HD
ATOM     37  N   UNL     1      26.710  39.511   1.140  0.00  0.00    -0.214 NA
BRANCH   4   3
ATOM      1  C   UNL     1      29.308  36.218   3.010  0.00  0.00    +0.020 A 
ATOM      2  C   UNL     1      28.252  37.193   2.861  0.00  0.00    +0.013 A 
ATOM      3  C   UNL     1      28.550  38.555   2.439  0.00  0.00    +0.019 A 
ATOM     38  C   UNL     1      29.937  38.903   2.173  0.00  0.00    +0.120 A 
ATOM     39  N   UNL     1      30.934  37.944   2.327  0.00  0.00    -0.263 NA
ATOM     40  C   UNL     1      30.659  36.630   2.734  0.00  0.00    +0.111 A 
ENDBRANCH   4   3
ENDBRANCH  10   9
BRANCH  12  13
ATOM     13  N   UNL     1      20.096  41.188  -0.383  0.00  0.00    -0.281 N 
ATOM     14  C   UNL     1      19.030  42.029  -0.110  0.00  0.00    +0.248 C 
ATOM     30  O   UNL     1      19.138  43.212   0.177  0.00  0.00    -0.270 OA
ATOM     31  H   UNL     1      19.884  40.191  -0.414  0.00  0.00    +0.155 HD
BRANCH  14  15
ATOM     15  C   UNL     1      17.643  41.472  -0.147  0.00  0.00    +0.037 A 
ATOM     16  C   UNL     1      17.381  40.064   0.161  0.00  0.00    +0.013 A 
ATOM     17  C   UNL     1      16.037  39.548   0.101  0.00  0.00    +0.005 A 
ATOM     18  C   UNL     1      14.942  40.442  -0.268  0.00  0.00    -0.033 A 
ATOM     28  C   UNL     1      15.230  41.836  -0.564  0.00  0.00    +0.005 A 
ATOM     29  C   UNL     1      16.546  42.345  -0.507  0.00  0.00    +0.013 A 
BRANCH  18  19
ATOM     19  C   UNL     1      13.480  39.973  -0.378  0.00  0.00    +0.119 C 
BRANCH  19  20
ATOM     20  N   UNL     1      12.471  40.675   0.471  0.00  0.00    -0.302 NA
ATOM     21  C   UNL     1      11.428  39.710   1.041  0.00  0.00    +0.066 C 
ATOM     22  C   UNL     1      10.394  40.457   1.945  0.00  0.00    -0.064 C 
ATOM     23  N   UNL     1       9.720  41.565   1.134  0.00  0.00    +0.379 N 
ATOM     24  C   UNL     1       8.705  42.232   1.963  0.00  0.00    -0.096 C 
ATOM     25  H   UNL     1       9.193  41.083   0.277  0.00  0.00    -0.082 HD
ATOM     26  C   UNL     1      10.749  42.528   0.560  0.00  0.00    -0.064 C 
ATOM     27  C   UNL     1      11.789  41.771  -0.312  0.00  0.00    +0.066 C 
ENDBRANCH  19  20
ENDBRANCH  18  19
ENDBRANCH  14  15
ENDBRANCH  12  13
TORSDOF 6
ENDMDL
MODEL 2
REMARK VINA RESULT:      -9.9     21.106     26.051
REMARK  Name = C:\Users\Docking\Desktop\test protocol\1iep_ligandH.pdb
REMARK  8 active torsions:
REMARK  status: ('A' for Active; 'I' for Inactive)
REMARK    1  A    between atoms: _5  and  _11
REMARK    2  A    between atoms: _19  and  _21
REMARK    3  A    between atoms: _22  and  _66
REMARK    4  A    between atoms: _27  and  _30
REMARK    5  A    between atoms: _32  and  _33
REMARK    6  A    between atoms: _38  and  _43
REMARK    7  A    between atoms: _43  and  _46
REMARK    8  A    between atoms: _53  and  _55
REMARK                            x       y       z     vdW  Elec       q    Type
REMARK                         _______ _______ _______ _____ _____    ______ ____
ROOT
ATOM     10  C   UNL     1      15.578  21.972  15.212  0.00  0.00    +0.038 A 
ATOM     11  C   UNL     1      16.472  23.073  15.219  0.00  0.00    +0.047 A 
ATOM     12  C   UNL     1      17.882  22.899  14.907  0.00  0.00    +0.035 A 
ATOM     32  C   UNL     1      18.347  21.590  14.588  0.00  0.00    +0.024 A 
ATOM     33  C   UNL     1      17.452  20.460  14.577  0.00  0.00    +0.007 A 
ATOM     34  C   UNL     1      16.061  20.624  14.887  0.00  0.00    -0.029 A 
ATOM     35  C   UNL     1      15.149  19.376  14.866  0.00  0.00    +0.045 C 
ENDROOT
BRANCH  10   9
ATOM      4  C   UNL     1      12.112  23.578  18.118  0.00  0.00    +0.077 A 
ATOM      5  C   UNL     1      13.057  23.982  19.119  0.00  0.00    +0.048 A 
ATOM      6  C   UNL     1      14.425  23.752  18.851  0.00  0.00    +0.116 A 
ATOM      7  N   UNL     1      14.808  23.162  17.665  0.00  0.00    -0.223 NA
ATOM      8  C   UNL     1      13.871  22.783  16.722  0.00  0.00    +0.220 A 
ATOM      9  N   UNL     1      14.234  22.195  15.520  0.00  0.00    -0.283 N 
ATOM     36  H   UNL     1      13.512  21.924  14.853  0.00  0.00    +0.155 HD
ATOM     37  N   UNL     1      12.558  22.991  16.955  0.00  0.00    -0.214 NA
BRANCH   4   3
ATOM      1  C   UNL     1       8.587  25.124  18.816  0.00  0.00    +0.020 A 
ATOM      2  C   UNL     1      10.023  25.003  18.702  0.00  0.00    +0.013 A 
ATOM      3  C   UNL     1      10.632  23.758  18.254  0.00  0.00    +0.019 A 
ATOM     38  C   UNL     1       9.754  22.645  17.924  0.00  0.00    +0.120 A 
ATOM     39  N   UNL     1       8.375  22.790  18.045  0.00  0.00    -0.263 NA
ATOM     40  C   UNL     1       7.778  23.984  18.477  0.00  0.00    +0.111 A 
ENDBRANCH   4   3
ENDBRANCH  10   9
BRANCH  12  13
ATOM     13  N   UNL     1      18.838  23.979  14.906  0.00  0.00    -0.281 N 
ATOM     14  C   UNL     1      18.881  25.079  15.747  0.00  0.00    +0.248 C 
ATOM     30  O   UNL     1      17.974  25.413  16.494  0.00  0.00    -0.270 OA
ATOM     31  H   UNL     1      19.573  23.925  14.200  0.00  0.00    +0.155 HD
BRANCH  14  15
ATOM     15  C   UNL     1      20.103  25.940  15.747  0.00  0.00    +0.037 A 
ATOM     16  C   UNL     1      20.719  26.386  14.495  0.00  0.00    +0.013 A 
ATOM     17  C   UNL     1      21.907  27.202  14.524  0.00  0.00    +0.005 A 
ATOM     18  C   UNL     1      22.486  27.578  15.811  0.00  0.00    -0.033 A 
ATOM     28  C   UNL     1      21.852  27.126  17.038  0.00  0.00    +0.005 A 
ATOM     29  C   UNL     1      20.688  26.326  17.014  0.00  0.00    +0.013 A 
BRANCH  18  19
ATOM     19  C   UNL     1      23.764  28.429  15.936  0.00  0.00    +0.119 C 
BRANCH  19  20
ATOM     20  N   UNL     1      25.045  27.808  15.484  0.00  0.00    -0.302 NA
ATOM     21  C   UNL     1      25.544  26.741  16.462  0.00  0.00    +0.066 C 
ATOM     22  C   UNL     1      26.873  26.087  15.962  0.00  0.00    -0.064 C 
ATOM     23  N   UNL     1      27.930  27.175  15.762  0.00  0.00    +0.379 N 
ATOM     24  C   UNL     1      29.197  26.557  15.347  0.00  0.00    -0.096 C 
ATOM     25  H   UNL     1      28.099  27.667  16.748  0.00  0.00    -0.082 HD
ATOM     26  C   UNL     1      27.440  28.242  14.792  0.00  0.00    -0.064 C 
ATOM     27  C   UNL     1      26.104  28.865  15.284  0.00  0.00    +0.066 C 
ENDBRANCH  19  20
ENDBRANCH  18  19
ENDBRANCH  14  15
ENDBRANCH  12  13
TORSDOF 6
ENDMDL
MODEL 3
REMARK VINA RESULT:      -9.9     23.455     25.492
REMARK  Name = C:\Users\Docking\Desktop\test protocol\1iep_ligandH.pdb
REMARK  8 active torsions:
REMARK  status: ('A' for Active; 'I' for Inactive)
REMARK    1  A    between atoms: _5  and  _11
REMARK    2  A    between atoms: _19  and  _21
REMARK    3  A    between atoms: _22  and  _66
REMARK    4  A    between atoms: _27  and  _30
REMARK    5  A    between atoms: _32  and  _33
REMARK    6  A    between atoms: _38  and  _43
REMARK    7  A    between atoms: _43  and  _46
REMARK    8  A    between atoms: _53  and  _55
REMARK                            x       y       z     vdW  Elec       q    Type
REMARK                         _______ _______ _______ _____ _____    ______ ____
ROOT
ATOM     10  C   UNL     1      19.682  20.705  13.954  0.00  0.00    +0.038 A 
ATOM     11  C   UNL     1      18.501  21.015  14.676  0.00  0.00    +0.047 A 
ATOM     12  C   UNL     1      17.981  22.372  14.722  0.00  0.00    +0.035 A 
ATOM     32  C   UNL     1      18.687  23.391  14.018  0.00  0.00    +0.024 A 
ATOM     33  C   UNL     1      19.890  23.094  13.280  0.00  0.00    +0.007 A 
ATOM     34  C   UNL     1      20.409  21.757  13.233  0.00  0.00    -0.029 A 
ATOM     35  C   UNL     1      21.706  21.498  12.431  0.00  0.00    +0.045 C 
ENDROOT
BRANCH  10   9
ATOM      4  C   UNL     1      20.142  16.403  11.876  0.00  0.00    +0.077 A 
ATOM      5  C   UNL     1      19.390  16.813  10.725  0.00  0.00    +0.048 A 
ATOM      6  C   UNL     1      18.897  18.137  10.710  0.00  0.00    +0.116 A 
ATOM      7  N   UNL     1      19.143  18.980  11.772  0.00  0.00    -0.223 NA
ATOM      8  C   UNL     1      19.870  18.552  12.868  0.00  0.00    +0.220 A 
ATOM      9  N   UNL     1      20.136  19.385  13.944  0.00  0.00    -0.283 N 
ATOM     36  H   UNL     1      20.670  19.029  14.737  0.00  0.00    +0.155 HD
ATOM     37  N   UNL     1      20.351  17.292  12.907  0.00  0.00    -0.214 NA
BRANCH   4   3
ATOM      1  C   UNL     1      20.743  12.706  13.003  0.00  0.00    +0.020 A 
ATOM      2  C   UNL     1      20.133  14.010  12.882  0.00  0.00    +0.013 A 
ATOM      3  C   UNL     1      20.732  15.037  12.038  0.00  0.00    +0.019 A 
ATOM     38  C   UNL     1      21.957  14.709  11.324  0.00  0.00    +0.120 A 
ATOM     39  N   UNL     1      22.523  13.445  11.462  0.00  0.00    -0.263 NA
ATOM     40  C   UNL     1      21.956  12.450  12.273  0.00  0.00    +0.111 A 
ENDBRANCH   4   3
ENDBRANCH  10   9
BRANCH  12  13
ATOM     13  N   UNL     1      16.791  22.748  15.445  0.00  0.00    -0.281 N 
ATOM     14  C   UNL     1      15.491  22.323  15.225  0.00  0.00    +0.248 C 
ATOM     30  O   UNL     1      15.121  21.717  14.230  0.00  0.00    -0.270 OA
ATOM     31  H   UNL     1      16.924  23.406  16.213  0.00  0.00    +0.155 HD
BRANCH  14  15
ATOM     15  C   UNL     1      14.448  22.629  16.251  0.00  0.00    +0.037 A 
ATOM     16  C   UNL     1      13.022  22.473  15.954  0.00  0.00    +0.013 A 
ATOM     17  C   UNL     1      12.036  22.791  16.957  0.00  0.00    +0.005 A 
ATOM     18  C   UNL     1      12.474  23.268  18.266  0.00  0.00    -0.033 A 
ATOM     28  C   UNL     1      13.895  23.408  18.535  0.00  0.00    +0.005 A 
ATOM     29  C   UNL     1      14.864  23.098  17.555  0.00  0.00    +0.013 A 
BRANCH  18  19
ATOM     19  C   UNL     1      11.491  23.651  19.389  0.00  0.00    +0.119 C 
BRANCH  19  20
ATOM     20  N   UNL     1      11.113  25.091  19.504  0.00  0.00    -0.302 NA
ATOM     21  C   UNL     1      11.515  25.684  20.858  0.00  0.00    +0.066 C 
ATOM     22  C   UNL     1      11.132  27.197  20.953  0.00  0.00    -0.064 C 
ATOM     23  N   UNL     1       9.629  27.355  20.717  0.00  0.00    +0.379 N 
ATOM     24  C   UNL     1       9.256  28.770  20.863  0.00  0.00    -0.096 C 
ATOM     25  H   UNL     1       9.099  26.782  21.513  0.00  0.00    -0.082 HD
ATOM     26  C   UNL     1       9.220  26.766  19.374  0.00  0.00    -0.064 C 
ATOM     27  C   UNL     1       9.631  25.270  19.279  0.00  0.00    +0.066 C 
ENDBRANCH  19  20
ENDBRANCH  18  19
ENDBRANCH  14  15
ENDBRANCH  12  13
TORSDOF 6
ENDMDL
MODEL 4
REMARK VINA RESULT:      -9.8     22.619     24.592
REMARK  Name = C:\Users\Docking\Desktop\test protocol\1iep_ligandH.pdb
REMARK  8 active torsions:
REMARK  status: ('A' for Active; 'I' for Inactive)
REMARK    1  A    between atoms: _5  and  _11
REMARK    2  A    between atoms: _19  and  _21
REMARK    3  A    between atoms: _22  and  _66
REMARK    4  A    between atoms: _27  and  _30
REMARK    5  A    between atoms: _32  and  _33
REMARK    6  A    between atoms: _38  and  _43
REMARK    7  A    between atoms: _43  and  _46
REMARK    8  A    between atoms: _53  and  _55
REMARK                            x       y       z     vdW  Elec       q    Type
REMARK                         _______ _______ _______ _____ _____    ______ ____
ROOT
ATOM     10  C   UNL     1      16.973  22.963  15.237  0.00  0.00    +0.038 A 
ATOM     11  C   UNL     1      15.766  23.343  15.877  0.00  0.00    +0.047 A 
ATOM     12  C   UNL     1      14.486  22.799  15.453  0.00  0.00    +0.035 A 
ATOM     32  C   UNL     1      14.471  21.868  14.373  0.00  0.00    +0.024 A 
ATOM     33  C   UNL     1      15.689  21.472  13.710  0.00  0.00    +0.007 A 
ATOM     34  C   UNL     1      16.955  22.007  14.123  0.00  0.00    -0.029 A 
ATOM     35  C   UNL     1      18.227  21.552  13.371  0.00  0.00    +0.045 C 
ENDROOT
BRANCH  10   9
ATOM      4  C   UNL     1      20.314  26.410  15.217  0.00  0.00    +0.077 A 
ATOM      5  C   UNL     1      19.620  27.158  14.209  0.00  0.00    +0.048 A 
ATOM      6  C   UNL     1      18.411  26.618  13.716  0.00  0.00    +0.116 A 
ATOM      7  N   UNL     1      17.940  25.418  14.204  0.00  0.00    -0.223 NA
ATOM      8  C   UNL     1      18.634  24.721  15.175  0.00  0.00    +0.220 A 
ATOM      9  N   UNL     1      18.175  23.516  15.685  0.00  0.00    -0.283 N 
ATOM     36  H   UNL     1      18.720  23.029  16.396  0.00  0.00    +0.155 HD
ATOM     37  N   UNL     1      19.792  25.215  15.661  0.00  0.00    -0.214 NA
BRANCH   4   3
ATOM      1  C   UNL     1      23.844  28.004  15.758  0.00  0.00    +0.020 A 
ATOM      2  C   UNL     1      22.617  27.602  15.111  0.00  0.00    +0.013 A 
ATOM      3  C   UNL     1      21.602  26.851  15.839  0.00  0.00    +0.019 A 
ATOM     38  C   UNL     1      21.862  26.521  17.232  0.00  0.00    +0.120 A 
ATOM     39  N   UNL     1      23.054  26.921  17.829  0.00  0.00    -0.263 NA
ATOM     40  C   UNL     1      24.038  27.642  17.138  0.00  0.00    +0.111 A 
ENDBRANCH   4   3
ENDBRANCH  10   9
BRANCH  12  13
ATOM     13  N   UNL     1      13.227  23.153  16.060  0.00  0.00    -0.281 N 
ATOM     14  C   UNL     1      12.490  22.426  16.981  0.00  0.00    +0.248 C 
ATOM     30  O   UNL     1      12.699  21.255  17.262  0.00  0.00    -0.270 OA
ATOM     31  H   UNL     1      12.830  24.049  15.777  0.00  0.00    +0.155 HD
BRANCH  14  15
ATOM     15  C   UNL     1      11.348  23.090  17.679  0.00  0.00    +0.037 A 
ATOM     16  C   UNL     1       9.980  22.581  17.552  0.00  0.00    +0.013 A 
ATOM     17  C   UNL     1       8.894  23.251  18.222  0.00  0.00    +0.005 A 
ATOM     18  C   UNL     1       9.172  24.438  19.027  0.00  0.00    -0.033 A 
ATOM     28  C   UNL     1      10.540  24.918  19.141  0.00  0.00    +0.005 A 
ATOM     29  C   UNL     1      11.607  24.264  18.484  0.00  0.00    +0.013 A 
BRANCH  18  19
ATOM     19  C   UNL     1       8.072  25.228  19.760  0.00  0.00    +0.119 C 
BRANCH  19  20
ATOM     20  N   UNL     1       7.606  24.693  21.074  0.00  0.00    -0.302 NA
ATOM     21  C   UNL     1       6.355  23.821  20.928  0.00  0.00    +0.066 C 
ATOM     22  C   UNL     1       5.894  23.251  22.309  0.00  0.00    -0.064 C 
ATOM     23  N   UNL     1       5.637  24.409  23.275  0.00  0.00    +0.379 N 
ATOM     24  C   UNL     1       5.148  23.879  24.556  0.00  0.00    -0.096 C 
ATOM     25  H   UNL     1       4.829  25.040  22.839  0.00  0.00    -0.082 HD
ATOM     26  C   UNL     1       6.875  25.282  23.424  0.00  0.00    -0.064 C 
ATOM     27  C   UNL     1       7.342  25.819  22.042  0.00  0.00    +0.066 C 
ENDBRANCH  19  20
ENDBRANCH  18  19
ENDBRANCH  14  15
ENDBRANCH  12  13
TORSDOF 6
ENDMDL
MODEL 5
REMARK VINA RESULT:      -9.7     23.747     25.782
REMARK  Name = C:\Users\Docking\Desktop\test protocol\1iep_ligandH.pdb
REMARK  8 active torsions:
REMARK  status: ('A' for Active; 'I' for Inactive)
REMARK    1  A    between atoms: _5  and  _11
REMARK    2  A    between atoms: _19  and  _21
REMARK    3  A    between atoms: _22  and  _66
REMARK    4  A    between atoms: _27  and  _30
REMARK    5  A    between atoms: _32  and  _33
REMARK    6  A    between atoms: _38  and  _43
REMARK    7  A    between atoms: _43  and  _46
REMARK    8  A    between atoms: _53  and  _55
REMARK                            x       y       z     vdW  Elec       q    Type
REMARK                         _______ _______ _______ _____ _____    ______ ____
ROOT
ATOM     10  C   UNL     1      19.716  20.718  13.895  0.00  0.00    +0.038 A 
ATOM     11  C   UNL     1      18.525  21.056  14.587  0.00  0.00    +0.047 A 
ATOM     12  C   UNL     1      18.032  22.424  14.613  0.00  0.00    +0.035 A 
ATOM     32  C   UNL     1      18.776  23.423  13.920  0.00  0.00    +0.024 A 
ATOM     33  C   UNL     1      19.989  23.098  13.213  0.00  0.00    +0.007 A 
ATOM     34  C   UNL     1      20.482  21.750  13.186  0.00  0.00    -0.029 A 
ATOM     35  C   UNL     1      21.792  21.461  12.417  0.00  0.00    +0.045 C 
ENDROOT
BRANCH  10   9
ATOM      4  C   UNL     1      20.155  16.400  11.845  0.00  0.00    +0.077 A 
ATOM      5  C   UNL     1      19.448  16.821  10.670  0.00  0.00    +0.048 A 
ATOM      6  C   UNL     1      18.982  18.155  10.635  0.00  0.00    +0.116 A 
ATOM      7  N   UNL     1      19.212  18.996  11.703  0.00  0.00    -0.223 NA
ATOM      8  C   UNL     1      19.895  18.557  12.822  0.00  0.00    +0.220 A 
ATOM      9  N   UNL     1      20.144  19.388  13.903  0.00  0.00    -0.283 N 
ATOM     36  H   UNL     1      20.645  19.025  14.714  0.00  0.00    +0.155 HD
ATOM     37  N   UNL     1      20.349  17.288  12.880  0.00  0.00    -0.214 NA
BRANCH   4   3
ATOM      1  C   UNL     1      22.410  13.217  11.565  0.00  0.00    +0.020 A 
ATOM      2  C   UNL     1      21.914  14.557  11.351  0.00  0.00    +0.013 A 
ATOM      3  C   UNL     1      20.711  15.023  12.030  0.00  0.00    +0.019 A 
ATOM     38  C   UNL     1      20.029  14.101  12.926  0.00  0.00    +0.120 A 
ATOM     39  N   UNL     1      20.530  12.816  13.111  0.00  0.00    -0.263 NA
ATOM     40  C   UNL     1      21.685  12.356  12.462  0.00  0.00    +0.111 A 
ENDBRANCH   4   3
ENDBRANCH  10   9
BRANCH  12  13
ATOM     13  N   UNL     1      16.833  22.827  15.305  0.00  0.00    -0.281 N 
ATOM     14  C   UNL     1      15.580  22.240  15.252  0.00  0.00    +0.248 C 
ATOM     30  O   UNL     1      15.245  21.400  14.430  0.00  0.00    -0.270 OA
ATOM     31  H   UNL     1      16.919  23.646  15.908  0.00  0.00    +0.155 HD
BRANCH  14  15
ATOM     15  C   UNL     1      14.544  22.656  16.246  0.00  0.00    +0.037 A 
ATOM     16  C   UNL     1      13.115  22.577  15.933  0.00  0.00    +0.013 A 
ATOM     17  C   UNL     1      12.138  23.000  16.904  0.00  0.00    +0.005 A 
ATOM     18  C   UNL     1      12.587  23.505  18.199  0.00  0.00    -0.033 A 
ATOM     28  C   UNL     1      14.011  23.568  18.486  0.00  0.00    +0.005 A 
ATOM     29  C   UNL     1      14.972  23.155  17.536  0.00  0.00    +0.013 A 
BRANCH  18  19
ATOM     19  C   UNL     1      11.615  23.999  19.288  0.00  0.00    +0.119 C 
BRANCH  19  20
ATOM     20  N   UNL     1      10.201  23.527  19.206  0.00  0.00    -0.302 NA
ATOM     21  C   UNL     1       9.279  24.580  18.584  0.00  0.00    +0.066 C 
ATOM     22  C   UNL     1       7.808  24.061  18.485  0.00  0.00    -0.064 C 
ATOM     23  N   UNL     1       7.315  23.666  19.878  0.00  0.00    +0.379 N 
ATOM     24  C   UNL     1       5.912  23.232  19.798  0.00  0.00    -0.096 C 
ATOM     25  H   UNL     1       7.352  24.576  20.521  0.00  0.00    -0.082 HD
ATOM     26  C   UNL     1       8.227  22.621  20.505  0.00  0.00    -0.064 C 
ATOM     27  C   UNL     1       9.692  23.135  20.571  0.00  0.00    +0.066 C 
ENDBRANCH  19  20
ENDBRANCH  18  19
ENDBRANCH  14  15
ENDBRANCH  12  13
TORSDOF 6
ENDMDL
