MODEL 1
REMARK VINA RESULT:      -8.4      0.000      0.000
REMARK  Name = C:\Users\Docking\Desktop\test protocol\1iep_ligandH.pdb
REMARK  8 active torsions:
REMARK  status: ('A' for Active; 'I' for Inactive)
REMARK    1  A    between atoms: _5  and  _11
REMARK    2  A    between atoms: _19  and  _21
REMARK    3  A    between atoms: _22  and  _66
REMARK    4  A    between atoms: _27  and  _30
REMARK    5  A    between atoms: _32  and  _33
REMARK    6  A    between atoms: _38  and  _43
REMARK    7  A    between atoms: _43  and  _46
REMARK    8  A    between atoms: _53  and  _55
REMARK                            x       y       z     vdW  Elec       q    Type
REMARK                         _______ _______ _______ _____ _____    ______ ____
ROOT
ATOM     10  C   UNL     1     -14.632  21.323  -7.366  0.00  0.00    +0.038 A 
ATOM     11  C   UNL     1     -13.480  21.287  -8.193  0.00  0.00    +0.047 A 
ATOM     12  C   UNL     1     -12.507  22.368  -8.174  0.00  0.00    +0.035 A 
ATOM     32  C   UNL     1     -12.737  23.469  -7.298  0.00  0.00    +0.024 A 
ATOM     33  C   UNL     1     -13.903  23.522  -6.452  0.00  0.00    +0.007 A 
ATOM     34  C   UNL     1     -14.868  22.460  -6.469  0.00  0.00    -0.029 A 
ATOM     35  C   UNL     1     -16.103  22.573  -5.545  0.00  0.00    +0.045 C 
ENDROOT
BRANCH  10   9
ATOM      4  C   UNL     1     -18.361  19.039  -9.345  0.00  0.00    +0.077 A 
ATOM      5  C   UNL     1     -18.545  20.067 -10.328  0.00  0.00    +0.048 A 
ATOM      6  C   UNL     1     -17.664  21.170 -10.286  0.00  0.00    +0.116 A 
ATOM      7  N   UNL     1     -16.675  21.230  -9.328  0.00  0.00    -0.223 NA
ATOM      8  C   UNL     1     -16.526  20.222  -8.393  0.00  0.00    +0.220 A 
ATOM      9  N   UNL     1     -15.534  20.258  -7.425  0.00  0.00    -0.283 N 
ATOM     36  H   UNL     1     -15.462  19.498  -6.749  0.00  0.00    +0.155 HD
ATOM     37  N   UNL     1     -17.356  19.159  -8.411  0.00  0.00    -0.214 NA
BRANCH   4   3
ATOM      1  C   UNL     1     -19.620  15.345  -9.620  0.00  0.00    +0.020 A 
ATOM      2  C   UNL     1     -18.760  16.502  -9.724  0.00  0.00    +0.013 A 
ATOM      3  C   UNL     1     -19.211  17.808  -9.262  0.00  0.00    +0.019 A 
ATOM     38  C   UNL     1     -20.547  17.911  -8.694  0.00  0.00    +0.120 A 
ATOM     39  N   UNL     1     -21.353  16.780  -8.609  0.00  0.00    -0.263 NA
ATOM     40  C   UNL     1     -20.930  15.518  -9.052  0.00  0.00    +0.111 A 
ENDBRANCH   4   3
ENDBRANCH  10   9
BRANCH  12  13
ATOM     13  N   UNL     1     -11.323  22.391  -8.997  0.00  0.00    -0.281 N 
ATOM     14  C   UNL     1     -10.070  21.880  -8.700  0.00  0.00    +0.248 C 
ATOM     30  O   UNL     1      -9.719  21.511  -7.589  0.00  0.00    -0.270 OA
ATOM     31  H   UNL     1     -11.420  22.839  -9.908  0.00  0.00    +0.155 HD
BRANCH  14  15
ATOM     15  C   UNL     1      -9.056  21.776  -9.793  0.00  0.00    +0.037 A 
ATOM     16  C   UNL     1      -8.944  22.807 -10.828  0.00  0.00    +0.013 A 
ATOM     17  C   UNL     1      -7.969  22.673 -11.880  0.00  0.00    +0.005 A 
ATOM     18  C   UNL     1      -7.095  21.503 -11.902  0.00  0.00    -0.033 A 
ATOM     28  C   UNL     1      -7.223  20.498 -10.860  0.00  0.00    +0.005 A 
ATOM     29  C   UNL     1      -8.179  20.625  -9.828  0.00  0.00    +0.013 A 
BRANCH  18  19
ATOM     19  C   UNL     1      -6.039  21.268 -12.999  0.00  0.00    +0.119 C 
BRANCH  19  20
ATOM     20  N   UNL     1      -6.383  20.298 -14.081  0.00  0.00    -0.302 NA
ATOM     21  C   UNL     1      -5.158  19.911 -14.916  0.00  0.00    +0.066 C 
ATOM     22  C   UNL     1      -5.531  18.879 -16.029  0.00  0.00    -0.064 C 
ATOM     23  N   UNL     1      -6.629  19.466 -16.918  0.00  0.00    +0.379 N 
ATOM     24  C   UNL     1      -6.941  18.522 -18.001  0.00  0.00    -0.096 C 
ATOM     25  H   UNL     1      -6.225  20.395 -17.385  0.00  0.00    -0.082 HD
ATOM     26  C   UNL     1      -7.849  19.856 -16.096  0.00  0.00    -0.064 C 
ATOM     27  C   UNL     1      -7.462  20.860 -14.974  0.00  0.00    +0.066 C 
ENDBRANCH  19  20
ENDBRANCH  18  19
ENDBRANCH  14  15
ENDBRANCH  12  13
TORSDOF 6
ENDMDL
MODEL 2
REMARK VINA RESULT:      -8.3      0.989      1.376
REMARK  Name = C:\Users\Docking\Desktop\test protocol\1iep_ligandH.pdb
REMARK  8 active torsions:
REMARK  status: ('A' for Active; 'I' for Inactive)
REMARK    1  A    between atoms: _5  and  _11
REMARK    2  A    between atoms: _19  and  _21
REMARK    3  A    between atoms: _22  and  _66
REMARK    4  A    between atoms: _27  and  _30
REMARK    5  A    between atoms: _32  and  _33
REMARK    6  A    between atoms: _38  and  _43
REMARK    7  A    between atoms: _43  and  _46
REMARK    8  A    between atoms: _53  and  _55
REMARK                            x       y       z     vdW  Elec       q    Type
REMARK                         _______ _______ _______ _____ _____    ______ ____
ROOT
ATOM     10  C   UNL     1     -14.791  22.086  -8.274  0.00  0.00    +0.038 A 
ATOM     11  C   UNL     1     -13.555  21.869  -8.934  0.00  0.00    +0.047 A 
ATOM     12  C   UNL     1     -12.605  22.953  -9.129  0.00  0.00    +0.035 A 
ATOM     32  C   UNL     1     -12.946  24.247  -8.635  0.00  0.00    +0.024 A 
ATOM     33  C   UNL     1     -14.199  24.485  -7.963  0.00  0.00    +0.007 A 
ATOM     34  C   UNL     1     -15.141  23.420  -7.771  0.00  0.00    -0.029 A 
ATOM     35  C   UNL     1     -16.471  23.735  -7.049  0.00  0.00    +0.045 C 
ENDROOT
BRANCH  10   9
ATOM      4  C   UNL     1     -18.382  19.289  -9.796  0.00  0.00    +0.077 A 
ATOM      5  C   UNL     1     -18.548  20.055 -10.998  0.00  0.00    +0.048 A 
ATOM      6  C   UNL     1     -17.694  21.165 -11.183  0.00  0.00    +0.116 A 
ATOM      7  N   UNL     1     -16.748  21.477 -10.231  0.00  0.00    -0.223 NA
ATOM      8  C   UNL     1     -16.616  20.718  -9.082  0.00  0.00    +0.220 A 
ATOM      9  N   UNL     1     -15.666  21.009  -8.115  0.00  0.00    -0.283 N 
ATOM     36  H   UNL     1     -15.605  20.430  -7.278  0.00  0.00    +0.155 HD
ATOM     37  N   UNL     1     -17.420  19.654  -8.881  0.00  0.00    -0.214 NA
BRANCH   4   3
ATOM      1  C   UNL     1     -19.579  15.594  -9.332  0.00  0.00    +0.020 A 
ATOM      2  C   UNL     1     -18.744  16.721  -9.676  0.00  0.00    +0.013 A 
ATOM      3  C   UNL     1     -19.207  18.086  -9.458  0.00  0.00    +0.019 A 
ATOM     38  C   UNL     1     -20.531  18.277  -8.885  0.00  0.00    +0.120 A 
ATOM     39  N   UNL     1     -21.314  17.172  -8.565  0.00  0.00    -0.263 NA
ATOM     40  C   UNL     1     -20.879  15.854  -8.772  0.00  0.00    +0.111 A 
ENDBRANCH   4   3
ENDBRANCH  10   9
BRANCH  12  13
ATOM     13  N   UNL     1     -11.338  22.794  -9.798  0.00  0.00    -0.281 N 
ATOM     14  C   UNL     1     -10.148  22.322  -9.269  0.00  0.00    +0.248 C 
ATOM     30  O   UNL     1      -9.937  22.163  -8.075  0.00  0.00    -0.270 OA
ATOM     31  H   UNL     1     -11.315  23.063 -10.782  0.00  0.00    +0.155 HD
BRANCH  14  15
ATOM     15  C   UNL     1      -9.025  21.991 -10.198  0.00  0.00    +0.037 A 
ATOM     16  C   UNL     1      -8.162  20.830  -9.964  0.00  0.00    +0.013 A 
ATOM     17  C   UNL     1      -7.075  20.543 -10.866  0.00  0.00    +0.005 A 
ATOM     18  C   UNL     1      -6.847  21.418 -12.014  0.00  0.00    -0.033 A 
ATOM     28  C   UNL     1      -7.722  22.560 -12.225  0.00  0.00    +0.005 A 
ATOM     29  C   UNL     1      -8.787  22.845 -11.342  0.00  0.00    +0.013 A 
BRANCH  18  19
ATOM     19  C   UNL     1      -5.699  21.200 -13.017  0.00  0.00    +0.119 C 
BRANCH  19  20
ATOM     20  N   UNL     1      -6.072  20.824 -14.413  0.00  0.00    -0.302 NA
ATOM     21  C   UNL     1      -6.500  19.358 -14.518  0.00  0.00    +0.066 C 
ATOM     22  C   UNL     1      -6.909  18.988 -15.981  0.00  0.00    -0.064 C 
ATOM     23  N   UNL     1      -5.740  19.280 -16.923  0.00  0.00    +0.379 N 
ATOM     24  C   UNL     1      -6.101  18.879 -18.291  0.00  0.00    -0.096 C 
ATOM     25  H   UNL     1      -4.880  18.648 -16.601  0.00  0.00    -0.082 HD
ATOM     26  C   UNL     1      -5.307  20.736 -16.823  0.00  0.00    -0.064 C 
ATOM     27  C   UNL     1      -4.931  21.101 -15.360  0.00  0.00    +0.066 C 
ENDBRANCH  19  20
ENDBRANCH  18  19
ENDBRANCH  14  15
ENDBRANCH  12  13
TORSDOF 6
ENDMDL
MODEL 3
REMARK VINA RESULT:      -7.9      7.748     12.179
REMARK  Name = C:\Users\Docking\Desktop\test protocol\1iep_ligandH.pdb
REMARK  8 active torsions:
REMARK  status: ('A' for Active; 'I' for Inactive)
REMARK    1  A    between atoms: _5  and  _11
REMARK    2  A    between atoms: _19  and  _21
REMARK    3  A    between atoms: _22  and  _66
REMARK    4  A    between atoms: _27  and  _30
REMARK    5  A    between atoms: _32  and  _33
REMARK    6  A    between atoms: _38  and  _43
REMARK    7  A    between atoms: _43  and  _46
REMARK    8  A    between atoms: _53  and  _55
REMARK                            x       y       z     vdW  Elec       q    Type
REMARK                         _______ _______ _______ _____ _____    ______ ____
ROOT
ATOM     10  C   UNL     1      -9.296  17.154  -3.954  0.00  0.00    +0.038 A 
ATOM     11  C   UNL     1     -10.638  17.240  -4.404  0.00  0.00    +0.047 A 
ATOM     12  C   UNL     1     -11.355  18.506  -4.393  0.00  0.00    +0.035 A 
ATOM     32  C   UNL     1     -10.674  19.665  -3.919  0.00  0.00    +0.024 A 
ATOM     33  C   UNL     1      -9.310  19.595  -3.457  0.00  0.00    +0.007 A 
ATOM     34  C   UNL     1      -8.598  18.349  -3.463  0.00  0.00    -0.029 A 
ATOM     35  C   UNL     1      -7.139  18.331  -2.950  0.00  0.00    +0.045 C 
ENDROOT
BRANCH  10   9
ATOM      4  C   UNL     1      -7.939  13.036  -1.896  0.00  0.00    +0.077 A 
ATOM      5  C   UNL     1      -8.534  13.398  -0.641  0.00  0.00    +0.048 A 
ATOM      6  C   UNL     1      -9.173  14.655  -0.566  0.00  0.00    +0.116 A 
ATOM      7  N   UNL     1      -9.209  15.481  -1.668  0.00  0.00    -0.223 NA
ATOM      8  C   UNL     1      -8.624  15.102  -2.862  0.00  0.00    +0.220 A 
ATOM      9  N   UNL     1      -8.655  15.913  -3.986  0.00  0.00    -0.283 N 
ATOM     36  H   UNL     1      -8.205  15.601  -4.846  0.00  0.00    +0.155 HD
ATOM     37  N   UNL     1      -8.006  13.907  -2.960  0.00  0.00    -0.214 NA
BRANCH   4   3
ATOM      1  C   UNL     1      -6.481   9.839  -3.615  0.00  0.00    +0.020 A 
ATOM      2  C   UNL     1      -7.179  11.092  -3.439  0.00  0.00    +0.013 A 
ATOM      3  C   UNL     1      -7.230  11.739  -2.134  0.00  0.00    +0.019 A 
ATOM     38  C   UNL     1      -6.558  11.088  -1.019  0.00  0.00    +0.120 A 
ATOM     39  N   UNL     1      -5.894   9.881  -1.219  0.00  0.00    -0.263 NA
ATOM     40  C   UNL     1      -5.840   9.248  -2.470  0.00  0.00    +0.111 A 
ENDBRANCH   4   3
ENDBRANCH  10   9
BRANCH  12  13
ATOM     13  N   UNL     1     -12.721  18.653  -4.831  0.00  0.00    -0.281 N 
ATOM     14  C   UNL     1     -13.843  18.893  -4.054  0.00  0.00    +0.248 C 
ATOM     30  O   UNL     1     -13.871  18.805  -2.835  0.00  0.00    -0.270 OA
ATOM     31  H   UNL     1     -12.880  18.570  -5.835  0.00  0.00    +0.155 HD
BRANCH  14  15
ATOM     15  C   UNL     1     -15.121  19.272  -4.729  0.00  0.00    +0.037 A 
ATOM     16  C   UNL     1     -16.228  18.320  -4.849  0.00  0.00    +0.013 A 
ATOM     17  C   UNL     1     -17.444  18.705  -5.520  0.00  0.00    +0.005 A 
ATOM     18  C   UNL     1     -17.559  20.051  -6.077  0.00  0.00    -0.033 A 
ATOM     28  C   UNL     1     -16.447  20.977  -5.939  0.00  0.00    +0.005 A 
ATOM     29  C   UNL     1     -15.254  20.603  -5.283  0.00  0.00    +0.013 A 
BRANCH  18  19
ATOM     19  C   UNL     1     -18.811  20.542  -6.828  0.00  0.00    +0.119 C 
BRANCH  19  20
ATOM     20  N   UNL     1     -18.596  21.273  -8.112  0.00  0.00    -0.302 NA
ATOM     21  C   UNL     1     -19.828  22.083  -8.526  0.00  0.00    +0.066 C 
ATOM     22  C   UNL     1     -19.577  22.859  -9.859  0.00  0.00    -0.064 C 
ATOM     23  N   UNL     1     -19.186  21.868 -10.957  0.00  0.00    +0.379 N 
ATOM     24  C   UNL     1     -19.006  22.588 -12.226  0.00  0.00    -0.096 C 
ATOM     25  H   UNL     1     -20.035  21.157 -11.089  0.00  0.00    -0.082 HD
ATOM     26  C   UNL     1     -17.964  21.057 -10.553  0.00  0.00    -0.064 C 
ATOM     27  C   UNL     1     -18.213  20.313  -9.211  0.00  0.00    +0.066 C 
ENDBRANCH  19  20
ENDBRANCH  18  19
ENDBRANCH  14  15
ENDBRANCH  12  13
TORSDOF 6
ENDMDL
MODEL 4
REMARK VINA RESULT:      -7.8      7.739     12.882
REMARK  Name = C:\Users\Docking\Desktop\test protocol\1iep_ligandH.pdb
REMARK  8 active torsions:
REMARK  status: ('A' for Active; 'I' for Inactive)
REMARK    1  A    between atoms: _5  and  _11
REMARK    2  A    between atoms: _19  and  _21
REMARK    3  A    between atoms: _22  and  _66
REMARK    4  A    between atoms: _27  and  _30
REMARK    5  A    between atoms: _32  and  _33
REMARK    6  A    between atoms: _38  and  _43
REMARK    7  A    between atoms: _43  and  _46
REMARK    8  A    between atoms: _53  and  _55
REMARK                            x       y       z     vdW  Elec       q    Type
REMARK                         _______ _______ _______ _____ _____    ______ ____
ROOT
ATOM     10  C   UNL     1     -26.058  15.082  -7.165  0.00  0.00    +0.038 A 
ATOM     11  C   UNL     1     -24.951  15.737  -7.763  0.00  0.00    +0.047 A 
ATOM     12  C   UNL     1     -23.905  16.340  -6.952  0.00  0.00    +0.035 A 
ATOM     32  C   UNL     1     -24.016  16.254  -5.533  0.00  0.00    +0.024 A 
ATOM     33  C   UNL     1     -25.135  15.593  -4.909  0.00  0.00    +0.007 A 
ATOM     34  C   UNL     1     -26.171  14.999  -5.704  0.00  0.00    -0.029 A 
ATOM     35  C   UNL     1     -27.351  14.308  -4.981  0.00  0.00    +0.045 C 
ENDROOT
BRANCH  10   9
ATOM      4  C   UNL     1     -30.199  15.308  -9.580  0.00  0.00    +0.077 A 
ATOM      5  C   UNL     1     -30.454  16.647  -9.135  0.00  0.00    +0.048 A 
ATOM      6  C   UNL     1     -29.498  17.240  -8.280  0.00  0.00    +0.116 A 
ATOM      7  N   UNL     1     -28.375  16.536  -7.904  0.00  0.00    -0.223 NA
ATOM      8  C   UNL     1     -28.160  15.245  -8.351  0.00  0.00    +0.220 A 
ATOM      9  N   UNL     1     -27.033  14.521  -7.992  0.00  0.00    -0.283 N 
ATOM     36  H   UNL     1     -26.915  13.568  -8.337  0.00  0.00    +0.155 HD
ATOM     37  N   UNL     1     -29.059  14.656  -9.167  0.00  0.00    -0.214 NA
BRANCH   4   3
ATOM      1  C   UNL     1     -31.837  13.738 -12.767  0.00  0.00    +0.020 A 
ATOM      2  C   UNL     1     -30.925  14.487 -11.934  0.00  0.00    +0.013 A 
ATOM      3  C   UNL     1     -31.114  14.548 -10.490  0.00  0.00    +0.019 A 
ATOM     38  C   UNL     1     -32.244  13.833  -9.917  0.00  0.00    +0.120 A 
ATOM     39  N   UNL     1     -33.107  13.121 -10.744  0.00  0.00    -0.263 NA
ATOM     40  C   UNL     1     -32.936  13.057 -12.135  0.00  0.00    +0.111 A 
ENDBRANCH   4   3
ENDBRANCH  10   9
BRANCH  12  13
ATOM     13  N   UNL     1     -22.762  17.025  -7.502  0.00  0.00    -0.281 N 
ATOM     14  C   UNL     1     -21.626  16.468  -8.068  0.00  0.00    +0.248 C 
ATOM     30  O   UNL     1     -21.325  15.286  -7.992  0.00  0.00    -0.270 OA
ATOM     31  H   UNL     1     -22.794  18.044  -7.471  0.00  0.00    +0.155 HD
BRANCH  14  15
ATOM     15  C   UNL     1     -20.682  17.355  -8.813  0.00  0.00    +0.037 A 
ATOM     16  C   UNL     1     -19.378  16.865  -9.268  0.00  0.00    +0.013 A 
ATOM     17  C   UNL     1     -18.479  17.747  -9.970  0.00  0.00    +0.005 A 
ATOM     18  C   UNL     1     -18.882  19.128 -10.223  0.00  0.00    -0.033 A 
ATOM     28  C   UNL     1     -20.184  19.586  -9.765  0.00  0.00    +0.005 A 
ATOM     29  C   UNL     1     -21.067  18.725  -9.076  0.00  0.00    +0.013 A 
BRANCH  18  19
ATOM     19  C   UNL     1     -17.978  20.144 -10.945  0.00  0.00    +0.119 C 
BRANCH  19  20
ATOM     20  N   UNL     1     -18.283  21.593 -10.747  0.00  0.00    -0.302 NA
ATOM     21  C   UNL     1     -18.851  22.239 -12.014  0.00  0.00    +0.066 C 
ATOM     22  C   UNL     1     -19.185  23.749 -11.781  0.00  0.00    -0.064 C 
ATOM     23  N   UNL     1     -17.925  24.481 -11.318  0.00  0.00    +0.379 N 
ATOM     24  C   UNL     1     -18.222  25.912 -11.154  0.00  0.00    -0.096 C 
ATOM     25  H   UNL     1     -17.161  24.384 -12.124  0.00  0.00    -0.082 HD
ATOM     26  C   UNL     1     -17.352  23.843 -10.060  0.00  0.00    -0.064 C 
ATOM     27  C   UNL     1     -17.051  22.336 -10.293  0.00  0.00    +0.066 C 
ENDBRANCH  19  20
ENDBRANCH  18  19
ENDBRANCH  14  15
ENDBRANCH  12  13
TORSDOF 6
ENDMDL
MODEL 5
REMARK VINA RESULT:      -7.7      7.904     15.907
REMARK  Name = C:\Users\Docking\Desktop\test protocol\1iep_ligandH.pdb
REMARK  8 active torsions:
REMARK  status: ('A' for Active; 'I' for Inactive)
REMARK    1  A    between atoms: _5  and  _11
REMARK    2  A    between atoms: _19  and  _21
REMARK    3  A    between atoms: _22  and  _66
REMARK    4  A    between atoms: _27  and  _30
REMARK    5  A    between atoms: _32  and  _33
REMARK    6  A    between atoms: _38  and  _43
REMARK    7  A    between atoms: _43  and  _46
REMARK    8  A    between atoms: _53  and  _55
REMARK                            x       y       z     vdW  Elec       q    Type
REMARK                         _______ _______ _______ _____ _____    ______ ____
ROOT
ATOM     10  C   UNL     1     -19.898  17.948  -8.272  0.00  0.00    +0.038 A 
ATOM     11  C   UNL     1     -21.280  17.628  -8.273  0.00  0.00    +0.047 A 
ATOM     12  C   UNL     1     -21.734  16.252  -8.148  0.00  0.00    +0.035 A 
ATOM     32  C   UNL     1     -20.752  15.226  -8.022  0.00  0.00    +0.024 A 
ATOM     33  C   UNL     1     -19.343  15.533  -8.020  0.00  0.00    +0.007 A 
ATOM     34  C   UNL     1     -18.890  16.889  -8.145  0.00  0.00    -0.029 A 
ATOM     35  C   UNL     1     -17.367  17.160  -8.143  0.00  0.00    +0.045 C 
ENDROOT
BRANCH  10   9
ATOM      4  C   UNL     1     -18.448  21.716 -10.868  0.00  0.00    +0.077 A 
ATOM      5  C   UNL     1     -18.417  20.946 -12.078  0.00  0.00    +0.048 A 
ATOM      6  C   UNL     1     -18.775  19.582 -11.988  0.00  0.00    +0.116 A 
ATOM      7  N   UNL     1     -19.135  19.039 -10.773  0.00  0.00    -0.223 NA
ATOM      8  C   UNL     1     -19.152  19.810  -9.625  0.00  0.00    +0.220 A 
ATOM      9  N   UNL     1     -19.519  19.287  -8.394  0.00  0.00    -0.283 N 
ATOM     36  H   UNL     1     -19.511  19.886  -7.570  0.00  0.00    +0.155 HD
ATOM     37  N   UNL     1     -18.813  21.114  -9.684  0.00  0.00    -0.214 NA
BRANCH   4   3
ATOM      1  C   UNL     1     -18.353  25.567 -11.548  0.00  0.00    +0.020 A 
ATOM      2  C   UNL     1     -18.725  24.175 -11.652  0.00  0.00    +0.013 A 
ATOM      3  C   UNL     1     -18.099  23.171 -10.801  0.00  0.00    +0.019 A 
ATOM     38  C   UNL     1     -17.093  23.612  -9.847  0.00  0.00    +0.120 A 
ATOM     39  N   UNL     1     -16.754  24.959  -9.770  0.00  0.00    -0.263 NA
ATOM     40  C   UNL     1     -17.348  25.934 -10.585  0.00  0.00    +0.111 A 
ENDBRANCH   4   3
ENDBRANCH  10   9
BRANCH  12  13
ATOM     13  N   UNL     1     -23.123  15.866  -8.151  0.00  0.00    -0.281 N 
ATOM     14  C   UNL     1     -24.095  16.175  -7.214  0.00  0.00    +0.248 C 
ATOM     30  O   UNL     1     -23.866  16.657  -6.114  0.00  0.00    -0.270 OA
ATOM     31  H   UNL     1     -23.426  15.294  -8.940  0.00  0.00    +0.155 HD
BRANCH  14  15
ATOM     15  C   UNL     1     -25.527  15.897  -7.540  0.00  0.00    +0.037 A 
ATOM     16  C   UNL     1     -25.980  14.547  -7.883  0.00  0.00    +0.013 A 
ATOM     17  C   UNL     1     -27.363  14.309  -8.210  0.00  0.00    +0.005 A 
ATOM     18  C   UNL     1     -28.305  15.426  -8.194  0.00  0.00    -0.033 A 
ATOM     28  C   UNL     1     -27.830  16.755  -7.845  0.00  0.00    +0.005 A 
ATOM     29  C   UNL     1     -26.474  16.992  -7.525  0.00  0.00    +0.013 A 
BRANCH  18  19
ATOM     19  C   UNL     1     -29.795  15.269  -8.550  0.00  0.00    +0.119 C 
BRANCH  19  20
ATOM     20  N   UNL     1     -30.176  15.426  -9.986  0.00  0.00    -0.302 NA
ATOM     21  C   UNL     1     -31.297  16.451 -10.174  0.00  0.00    +0.066 C 
ATOM     22  C   UNL     1     -31.667  16.619 -11.684  0.00  0.00    -0.064 C 
ATOM     23  N   UNL     1     -32.072  15.262 -12.261  0.00  0.00    +0.379 N 
ATOM     24  C   UNL     1     -32.476  15.426 -13.665  0.00  0.00    -0.096 C 
ATOM     25  H   UNL     1     -32.962  14.904 -11.692  0.00  0.00    -0.082 HD
ATOM     26  C   UNL     1     -30.963  14.235 -12.075  0.00  0.00    -0.064 C 
ATOM     27  C   UNL     1     -30.583  14.098 -10.575  0.00  0.00    +0.066 C 
ENDBRANCH  19  20
ENDBRANCH  18  19
ENDBRANCH  14  15
ENDBRANCH  12  13
TORSDOF 6
ENDMDL
