MODEL 1
REMARK VINA RESULT:      -8.7      0.000      0.000
REMARK  Name = C:\Users\Docking\Desktop\test protocol\1iep_ligandH.pdb
REMARK  8 active torsions:
REMARK  status: ('A' for Active; 'I' for Inactive)
REMARK    1  A    between atoms: _5  and  _11
REMARK    2  A    between atoms: _19  and  _21
REMARK    3  A    between atoms: _22  and  _66
REMARK    4  A    between atoms: _27  and  _30
REMARK    5  A    between atoms: _32  and  _33
REMARK    6  A    between atoms: _38  and  _43
REMARK    7  A    between atoms: _43  and  _46
REMARK    8  A    between atoms: _53  and  _55
REMARK                            x       y       z     vdW  Elec       q    Type
REMARK                         _______ _______ _______ _____ _____    ______ ____
ROOT
ATOM     10  C   UNL     1     -15.143  22.232  -8.355  0.00  0.00    +0.038 A 
ATOM     11  C   UNL     1     -13.916  21.985  -9.021  0.00  0.00    +0.047 A 
ATOM     12  C   UNL     1     -12.983  23.065  -9.305  0.00  0.00    +0.035 A 
ATOM     32  C   UNL     1     -13.331  24.384  -8.892  0.00  0.00    +0.024 A 
ATOM     33  C   UNL     1     -14.575  24.653  -8.215  0.00  0.00    +0.007 A 
ATOM     34  C   UNL     1     -15.500  23.592  -7.935  0.00  0.00    -0.029 A 
ATOM     35  C   UNL     1     -16.822  23.939  -7.212  0.00  0.00    +0.045 C 
ENDROOT
BRANCH  10   9
ATOM      4  C   UNL     1     -18.625  19.205  -9.681  0.00  0.00    +0.077 A 
ATOM      5  C   UNL     1     -18.764  19.834 -10.963  0.00  0.00    +0.048 A 
ATOM      6  C   UNL     1     -17.926  20.937 -11.239  0.00  0.00    +0.116 A 
ATOM      7  N   UNL     1     -17.019  21.371 -10.296  0.00  0.00    -0.223 NA
ATOM      8  C   UNL     1     -16.912  20.743  -9.069  0.00  0.00    +0.220 A 
ATOM      9  N   UNL     1     -16.001  21.158  -8.109  0.00  0.00    -0.283 N 
ATOM     36  H   UNL     1     -15.958  20.673  -7.213  0.00  0.00    +0.155 HD
ATOM     37  N   UNL     1     -17.702  19.688  -8.780  0.00  0.00    -0.214 NA
BRANCH   4   3
ATOM      1  C   UNL     1     -19.746  15.559  -8.814  0.00  0.00    +0.020 A 
ATOM      2  C   UNL     1     -18.921  16.663  -9.249  0.00  0.00    +0.013 A 
ATOM      3  C   UNL     1     -19.436  18.026  -9.242  0.00  0.00    +0.019 A 
ATOM     38  C   UNL     1     -20.802  18.241  -8.787  0.00  0.00    +0.120 A 
ATOM     39  N   UNL     1     -21.573  17.158  -8.376  0.00  0.00    -0.263 NA
ATOM     40  C   UNL     1     -21.089  15.842  -8.379  0.00  0.00    +0.111 A 
ENDBRANCH   4   3
ENDBRANCH  10   9
BRANCH  12  13
ATOM     13  N   UNL     1     -11.726  22.876  -9.985  0.00  0.00    -0.281 N 
ATOM     14  C   UNL     1     -10.474  22.683  -9.423  0.00  0.00    +0.248 C 
ATOM     30  O   UNL     1     -10.212  22.857  -8.243  0.00  0.00    -0.270 OA
ATOM     31  H   UNL     1     -11.763  22.886 -11.004  0.00  0.00    +0.155 HD
BRANCH  14  15
ATOM     15  C   UNL     1      -9.347  22.247 -10.304  0.00  0.00    +0.037 A 
ATOM     16  C   UNL     1      -8.564  21.047  -9.998  0.00  0.00    +0.013 A 
ATOM     17  C   UNL     1      -7.472  20.658 -10.854  0.00  0.00    +0.005 A 
ATOM     18  C   UNL     1      -7.157  21.471 -12.026  0.00  0.00    -0.033 A 
ATOM     28  C   UNL     1      -7.953  22.654 -12.309  0.00  0.00    +0.005 A 
ATOM     29  C   UNL     1      -9.024  23.038 -11.472  0.00  0.00    +0.013 A 
BRANCH  18  19
ATOM     19  C   UNL     1      -5.995  21.143 -12.983  0.00  0.00    +0.119 C 
BRANCH  19  20
ATOM     20  N   UNL     1      -6.349  20.783 -14.389  0.00  0.00    -0.302 NA
ATOM     21  C   UNL     1      -6.670  19.293 -14.537  0.00  0.00    +0.066 C 
ATOM     22  C   UNL     1      -7.059  18.938 -16.009  0.00  0.00    -0.064 C 
ATOM     23  N   UNL     1      -5.920  19.342 -16.946  0.00  0.00    +0.379 N 
ATOM     24  C   UNL     1      -6.258  18.957 -18.324  0.00  0.00    -0.096 C 
ATOM     25  H   UNL     1      -5.014  18.765 -16.646  0.00  0.00    -0.082 HD
ATOM     26  C   UNL     1      -5.592  20.822 -16.804  0.00  0.00    -0.064 C 
ATOM     27  C   UNL     1      -5.235  21.170 -15.331  0.00  0.00    +0.066 C 
ENDBRANCH  19  20
ENDBRANCH  18  19
ENDBRANCH  14  15
ENDBRANCH  12  13
TORSDOF 6
ENDMDL
MODEL 2
REMARK VINA RESULT:      -8.5      0.793      1.143
REMARK  Name = C:\Users\Docking\Desktop\test protocol\1iep_ligandH.pdb
REMARK  8 active torsions:
REMARK  status: ('A' for Active; 'I' for Inactive)
REMARK    1  A    between atoms: _5  and  _11
REMARK    2  A    between atoms: _19  and  _21
REMARK    3  A    between atoms: _22  and  _66
REMARK    4  A    between atoms: _27  and  _30
REMARK    5  A    between atoms: _32  and  _33
REMARK    6  A    between atoms: _38  and  _43
REMARK    7  A    between atoms: _43  and  _46
REMARK    8  A    between atoms: _53  and  _55
REMARK                            x       y       z     vdW  Elec       q    Type
REMARK                         _______ _______ _______ _____ _____    ______ ____
ROOT
ATOM     10  C   UNL     1     -14.838  21.590  -7.546  0.00  0.00    +0.038 A 
ATOM     11  C   UNL     1     -13.655  21.478  -8.320  0.00  0.00    +0.047 A 
ATOM     12  C   UNL     1     -12.704  22.575  -8.406  0.00  0.00    +0.035 A 
ATOM     32  C   UNL     1     -12.988  23.773  -7.687  0.00  0.00    +0.024 A 
ATOM     33  C   UNL     1     -14.186  23.905  -6.895  0.00  0.00    +0.007 A 
ATOM     34  C   UNL     1     -15.129  22.827  -6.810  0.00  0.00    -0.029 A 
ATOM     35  C   UNL     1     -16.400  23.026  -5.952  0.00  0.00    +0.045 C 
ENDROOT
BRANCH  10   9
ATOM      4  C   UNL     1     -18.626  19.139  -9.181  0.00  0.00    +0.077 A 
ATOM      5  C   UNL     1     -18.895  20.116 -10.197  0.00  0.00    +0.048 A 
ATOM      6  C   UNL     1     -18.039  21.238 -10.260  0.00  0.00    +0.116 A 
ATOM      7  N   UNL     1     -16.995  21.363  -9.369  0.00  0.00    -0.223 NA
ATOM      8  C   UNL     1     -16.765  20.404  -8.401  0.00  0.00    +0.220 A 
ATOM      9  N   UNL     1     -15.716  20.506  -7.499  0.00  0.00    -0.283 N 
ATOM     36  H   UNL     1     -15.585  19.780  -6.795  0.00  0.00    +0.155 HD
ATOM     37  N   UNL     1     -17.569  19.324  -8.318  0.00  0.00    -0.214 NA
BRANCH   4   3
ATOM      1  C   UNL     1     -19.704  15.390  -8.890  0.00  0.00    +0.020 A 
ATOM      2  C   UNL     1     -18.875  16.557  -9.085  0.00  0.00    +0.013 A 
ATOM      3  C   UNL     1     -19.440  17.897  -8.989  0.00  0.00    +0.019 A 
ATOM     38  C   UNL     1     -20.859  18.022  -8.691  0.00  0.00    +0.120 A 
ATOM     39  N   UNL     1     -21.633  16.881  -8.510  0.00  0.00    -0.263 NA
ATOM     40  C   UNL     1     -21.100  15.586  -8.602  0.00  0.00    +0.111 A 
ENDBRANCH   4   3
ENDBRANCH  10   9
BRANCH  12  13
ATOM     13  N   UNL     1     -11.490  22.521  -9.182  0.00  0.00    -0.281 N 
ATOM     14  C   UNL     1     -10.280  21.944  -8.833  0.00  0.00    +0.248 C 
ATOM     30  O   UNL     1      -9.993  21.570  -7.706  0.00  0.00    -0.270 OA
ATOM     31  H   UNL     1     -11.528  22.962 -10.101  0.00  0.00    +0.155 HD
BRANCH  14  15
ATOM     15  C   UNL     1      -9.233  21.770  -9.885  0.00  0.00    +0.037 A 
ATOM     16  C   UNL     1      -9.095  22.727 -10.985  0.00  0.00    +0.013 A 
ATOM     17  C   UNL     1      -8.087  22.526 -11.996  0.00  0.00    +0.005 A 
ATOM     18  C   UNL     1      -7.208  21.362 -11.910  0.00  0.00    -0.033 A 
ATOM     28  C   UNL     1      -7.364  20.431 -10.805  0.00  0.00    +0.005 A 
ATOM     29  C   UNL     1      -8.351  20.624  -9.813  0.00  0.00    +0.013 A 
BRANCH  18  19
ATOM     19  C   UNL     1      -6.119  21.057 -12.956  0.00  0.00    +0.119 C 
BRANCH  19  20
ATOM     20  N   UNL     1      -6.575  20.622 -14.310  0.00  0.00    -0.302 NA
ATOM     21  C   UNL     1      -6.693  19.099 -14.414  0.00  0.00    +0.066 C 
ATOM     22  C   UNL     1      -7.192  18.662 -15.830  0.00  0.00    -0.064 C 
ATOM     23  N   UNL     1      -6.237  19.205 -16.894  0.00  0.00    +0.379 N 
ATOM     24  C   UNL     1      -6.671  18.748 -18.222  0.00  0.00    -0.096 C 
ATOM     25  H   UNL     1      -5.230  18.769 -16.698  0.00  0.00    -0.082 HD
ATOM     26  C   UNL     1      -6.111  20.719 -16.796  0.00  0.00    -0.064 C 
ATOM     27  C   UNL     1      -5.643  21.144 -15.376  0.00  0.00    +0.066 C 
ENDBRANCH  19  20
ENDBRANCH  18  19
ENDBRANCH  14  15
ENDBRANCH  12  13
TORSDOF 6
ENDMDL
MODEL 3
REMARK VINA RESULT:      -7.9      7.785     13.109
REMARK  Name = C:\Users\Docking\Desktop\test protocol\1iep_ligandH.pdb
REMARK  8 active torsions:
REMARK  status: ('A' for Active; 'I' for Inactive)
REMARK    1  A    between atoms: _5  and  _11
REMARK    2  A    between atoms: _19  and  _21
REMARK    3  A    between atoms: _22  and  _66
REMARK    4  A    between atoms: _27  and  _30
REMARK    5  A    between atoms: _32  and  _33
REMARK    6  A    between atoms: _38  and  _43
REMARK    7  A    between atoms: _43  and  _46
REMARK    8  A    between atoms: _53  and  _55
REMARK                            x       y       z     vdW  Elec       q    Type
REMARK                         _______ _______ _______ _____ _____    ______ ____
ROOT
ATOM     10  C   UNL     1     -26.259  15.203  -6.918  0.00  0.00    +0.038 A 
ATOM     11  C   UNL     1     -25.163  15.846  -7.547  0.00  0.00    +0.047 A 
ATOM     12  C   UNL     1     -24.107  16.470  -6.766  0.00  0.00    +0.035 A 
ATOM     32  C   UNL     1     -24.197  16.418  -5.344  0.00  0.00    +0.024 A 
ATOM     33  C   UNL     1     -25.305  15.769  -4.688  0.00  0.00    +0.007 A 
ATOM     34  C   UNL     1     -26.352  15.154  -5.454  0.00  0.00    -0.029 A 
ATOM     35  C   UNL     1     -27.519  14.479  -4.697  0.00  0.00    +0.045 C 
ENDROOT
BRANCH  10   9
ATOM      4  C   UNL     1     -30.431  15.364  -9.285  0.00  0.00    +0.077 A 
ATOM      5  C   UNL     1     -30.681  16.716  -8.872  0.00  0.00    +0.048 A 
ATOM      6  C   UNL     1     -29.714  17.330  -8.045  0.00  0.00    +0.116 A 
ATOM      7  N   UNL     1     -28.586  16.637  -7.666  0.00  0.00    -0.223 NA
ATOM      8  C   UNL     1     -28.377  15.334  -8.080  0.00  0.00    +0.220 A 
ATOM      9  N   UNL     1     -27.245  14.620  -7.717  0.00  0.00    -0.283 N 
ATOM     36  H   UNL     1     -27.131  13.658  -8.037  0.00  0.00    +0.155 HD
ATOM     37  N   UNL     1     -29.286  14.724  -8.869  0.00  0.00    -0.214 NA
BRANCH   4   3
ATOM      1  C   UNL     1     -32.044  13.612 -12.388  0.00  0.00    +0.020 A 
ATOM      2  C   UNL     1     -31.119  14.378 -11.586  0.00  0.00    +0.013 A 
ATOM      3  C   UNL     1     -31.357  14.580 -10.162  0.00  0.00    +0.019 A 
ATOM     38  C   UNL     1     -32.551  13.989  -9.576  0.00  0.00    +0.120 A 
ATOM     39  N   UNL     1     -33.425  13.257 -10.374  0.00  0.00    -0.263 NA
ATOM     40  C   UNL     1     -33.207  13.057 -11.746  0.00  0.00    +0.111 A 
ENDBRANCH   4   3
ENDBRANCH  10   9
BRANCH  12  13
ATOM     13  N   UNL     1     -22.973  17.144  -7.349  0.00  0.00    -0.281 N 
ATOM     14  C   UNL     1     -21.827  16.577  -7.882  0.00  0.00    +0.248 C 
ATOM     30  O   UNL     1     -21.507  15.406  -7.744  0.00  0.00    -0.270 OA
ATOM     31  H   UNL     1     -23.022  18.162  -7.372  0.00  0.00    +0.155 HD
BRANCH  14  15
ATOM     15  C   UNL     1     -20.895  17.439  -8.671  0.00  0.00    +0.037 A 
ATOM     16  C   UNL     1     -19.618  16.921  -9.168  0.00  0.00    +0.013 A 
ATOM     17  C   UNL     1     -18.730  17.779  -9.912  0.00  0.00    +0.005 A 
ATOM     18  C   UNL     1     -19.118  19.165 -10.164  0.00  0.00    -0.033 A 
ATOM     28  C   UNL     1     -20.393  19.651  -9.664  0.00  0.00    +0.005 A 
ATOM     29  C   UNL     1     -21.265  18.814  -8.934  0.00  0.00    +0.013 A 
BRANCH  18  19
ATOM     19  C   UNL     1     -18.223  20.157 -10.930  0.00  0.00    +0.119 C 
BRANCH  19  20
ATOM     20  N   UNL     1     -18.499  21.613 -10.742  0.00  0.00    -0.302 NA
ATOM     21  C   UNL     1     -19.054  22.261 -12.013  0.00  0.00    +0.066 C 
ATOM     22  C   UNL     1     -19.358  23.779 -11.792  0.00  0.00    -0.064 C 
ATOM     23  N   UNL     1     -18.084  24.490 -11.333  0.00  0.00    +0.379 N 
ATOM     24  C   UNL     1     -18.353  25.927 -11.180  0.00  0.00    -0.096 C 
ATOM     25  H   UNL     1     -17.322  24.372 -12.138  0.00  0.00    -0.082 HD
ATOM     26  C   UNL     1     -17.524  23.850 -10.071  0.00  0.00    -0.064 C 
ATOM     27  C   UNL     1     -17.253  22.335 -10.293  0.00  0.00    +0.066 C 
ENDBRANCH  19  20
ENDBRANCH  18  19
ENDBRANCH  14  15
ENDBRANCH  12  13
TORSDOF 6
ENDMDL
MODEL 4
REMARK VINA RESULT:      -7.8      8.021     16.196
REMARK  Name = C:\Users\Docking\Desktop\test protocol\1iep_ligandH.pdb
REMARK  8 active torsions:
REMARK  status: ('A' for Active; 'I' for Inactive)
REMARK    1  A    between atoms: _5  and  _11
REMARK    2  A    between atoms: _19  and  _21
REMARK    3  A    between atoms: _22  and  _66
REMARK    4  A    between atoms: _27  and  _30
REMARK    5  A    between atoms: _32  and  _33
REMARK    6  A    between atoms: _38  and  _43
REMARK    7  A    between atoms: _43  and  _46
REMARK    8  A    between atoms: _53  and  _55
REMARK                            x       y       z     vdW  Elec       q    Type
REMARK                         _______ _______ _______ _____ _____    ______ ____
ROOT
ATOM     10  C   UNL     1     -19.983  18.032  -8.312  0.00  0.00    +0.038 A 
ATOM     11  C   UNL     1     -21.368  17.732  -8.252  0.00  0.00    +0.047 A 
ATOM     12  C   UNL     1     -21.837  16.358  -8.176  0.00  0.00    +0.035 A 
ATOM     32  C   UNL     1     -20.868  15.312  -8.161  0.00  0.00    +0.024 A 
ATOM     33  C   UNL     1     -19.457  15.599  -8.222  0.00  0.00    +0.007 A 
ATOM     34  C   UNL     1     -18.988  16.953  -8.300  0.00  0.00    -0.029 A 
ATOM     35  C   UNL     1     -17.463  17.201  -8.370  0.00  0.00    +0.045 C 
ENDROOT
BRANCH  10   9
ATOM      4  C   UNL     1     -18.603  21.911 -10.780  0.00  0.00    +0.077 A 
ATOM      5  C   UNL     1     -18.647  21.205 -12.028  0.00  0.00    +0.048 A 
ATOM      6  C   UNL     1     -19.023  19.844 -11.991  0.00  0.00    +0.116 A 
ATOM      7  N   UNL     1     -19.330  19.243 -10.789  0.00  0.00    -0.223 NA
ATOM      8  C   UNL     1     -19.275  19.952  -9.603  0.00  0.00    +0.220 A 
ATOM      9  N   UNL     1     -19.588  19.370  -8.384  0.00  0.00    -0.283 N 
ATOM     36  H   UNL     1     -19.528  19.924  -7.531  0.00  0.00    +0.155 HD
ATOM     37  N   UNL     1     -18.918  21.253  -9.612  0.00  0.00    -0.214 NA
BRANCH   4   3
ATOM      1  C   UNL     1     -18.304  25.759 -11.417  0.00  0.00    +0.020 A 
ATOM      2  C   UNL     1     -18.696  24.378 -11.582  0.00  0.00    +0.013 A 
ATOM      3  C   UNL     1     -18.227  23.355 -10.655  0.00  0.00    +0.019 A 
ATOM     38  C   UNL     1     -17.357  23.765  -9.564  0.00  0.00    +0.120 A 
ATOM     39  N   UNL     1     -16.995  25.102  -9.431  0.00  0.00    -0.263 NA
ATOM     40  C   UNL     1     -17.438  26.095 -10.317  0.00  0.00    +0.111 A 
ENDBRANCH   4   3
ENDBRANCH  10   9
BRANCH  12  13
ATOM     13  N   UNL     1     -23.231  15.992  -8.121  0.00  0.00    -0.281 N 
ATOM     14  C   UNL     1     -24.158  16.315  -7.143  0.00  0.00    +0.248 C 
ATOM     30  O   UNL     1     -23.876  16.791  -6.054  0.00  0.00    -0.270 OA
ATOM     31  H   UNL     1     -23.576  15.426  -8.897  0.00  0.00    +0.155 HD
BRANCH  14  15
ATOM     15  C   UNL     1     -25.606  16.058  -7.409  0.00  0.00    +0.037 A 
ATOM     16  C   UNL     1     -26.604  17.124  -7.276  0.00  0.00    +0.013 A 
ATOM     17  C   UNL     1     -27.996  16.845  -7.522  0.00  0.00    +0.005 A 
ATOM     18  C   UNL     1     -28.400  15.494  -7.905  0.00  0.00    -0.033 A 
ATOM     28  C   UNL     1     -27.389  14.458  -8.035  0.00  0.00    +0.005 A 
ATOM     29  C   UNL     1     -26.023  14.727  -7.794  0.00  0.00    +0.013 A 
BRANCH  18  19
ATOM     19  C   UNL     1     -29.866  15.102  -8.166  0.00  0.00    +0.119 C 
BRANCH  19  20
ATOM     20  N   UNL     1     -30.218  14.647  -9.544  0.00  0.00    -0.302 NA
ATOM     21  C   UNL     1     -30.979  15.720 -10.327  0.00  0.00    +0.066 C 
ATOM     22  C   UNL     1     -31.318  15.235 -11.774  0.00  0.00    -0.064 C 
ATOM     23  N   UNL     1     -32.131  13.941 -11.698  0.00  0.00    +0.379 N 
ATOM     24  C   UNL     1     -32.501  13.514 -13.055  0.00  0.00    -0.096 C 
ATOM     25  H   UNL     1     -33.073  14.166 -11.145  0.00  0.00    -0.082 HD
ATOM     26  C   UNL     1     -31.382  12.869 -10.918  0.00  0.00    -0.064 C 
ATOM     27  C   UNL     1     -31.024  13.372  -9.492  0.00  0.00    +0.066 C 
ENDBRANCH  19  20
ENDBRANCH  18  19
ENDBRANCH  14  15
ENDBRANCH  12  13
TORSDOF 6
ENDMDL
MODEL 5
REMARK VINA RESULT:      -7.7      5.836      8.108
REMARK  Name = C:\Users\Docking\Desktop\test protocol\1iep_ligandH.pdb
REMARK  8 active torsions:
REMARK  status: ('A' for Active; 'I' for Inactive)
REMARK    1  A    between atoms: _5  and  _11
REMARK    2  A    between atoms: _19  and  _21
REMARK    3  A    between atoms: _22  and  _66
REMARK    4  A    between atoms: _27  and  _30
REMARK    5  A    between atoms: _32  and  _33
REMARK    6  A    between atoms: _38  and  _43
REMARK    7  A    between atoms: _43  and  _46
REMARK    8  A    between atoms: _53  and  _55
REMARK                            x       y       z     vdW  Elec       q    Type
REMARK                         _______ _______ _______ _____ _____    ______ ____
ROOT
ATOM     10  C   UNL     1     -17.324  20.380  -8.434  0.00  0.00    +0.038 A 
ATOM     11  C   UNL     1     -16.121  20.040  -7.764  0.00  0.00    +0.047 A 
ATOM     12  C   UNL     1     -14.829  20.475  -8.272  0.00  0.00    +0.035 A 
ATOM     32  C   UNL     1     -14.799  21.257  -9.464  0.00  0.00    +0.024 A 
ATOM     33  C   UNL     1     -16.013  21.610 -10.157  0.00  0.00    +0.007 A 
ATOM     34  C   UNL     1     -17.290  21.182  -9.663  0.00  0.00    -0.029 A 
ATOM     35  C   UNL     1     -18.558  21.584 -10.451  0.00  0.00    +0.045 C 
ENDROOT
BRANCH  10   9
ATOM      4  C   UNL     1     -20.634  16.981  -7.702  0.00  0.00    +0.077 A 
ATOM      5  C   UNL     1     -19.897  16.016  -8.466  0.00  0.00    +0.048 A 
ATOM      6  C   UNL     1     -18.675  16.437  -9.037  0.00  0.00    +0.116 A 
ATOM      7  N   UNL     1     -18.232  17.728  -8.851  0.00  0.00    -0.223 NA
ATOM      8  C   UNL     1     -18.967  18.634  -8.109  0.00  0.00    +0.220 A 
ATOM      9  N   UNL     1     -18.537  19.936  -7.902  0.00  0.00    -0.283 N 
ATOM     36  H   UNL     1     -19.112  20.576  -7.355  0.00  0.00    +0.155 HD
ATOM     37  N   UNL     1     -20.138  18.258  -7.555  0.00  0.00    -0.214 NA
BRANCH   4   3
ATOM      1  C   UNL     1     -24.405  16.149  -7.080  0.00  0.00    +0.020 A 
ATOM      2  C   UNL     1     -23.169  16.427  -7.774  0.00  0.00    +0.013 A 
ATOM      3  C   UNL     1     -21.941  16.688  -7.033  0.00  0.00    +0.019 A 
ATOM     38  C   UNL     1     -21.998  16.658  -5.580  0.00  0.00    +0.120 A 
ATOM     39  N   UNL     1     -23.203  16.388  -4.939  0.00  0.00    -0.263 NA
ATOM     40  C   UNL     1     -24.391  16.137  -5.641  0.00  0.00    +0.111 A 
ENDBRANCH   4   3
ENDBRANCH  10   9
BRANCH  12  13
ATOM     13  N   UNL     1     -13.573  20.154  -7.640  0.00  0.00    -0.281 N 
ATOM     14  C   UNL     1     -12.855  20.920  -6.736  0.00  0.00    +0.248 C 
ATOM     30  O   UNL     1     -13.078  22.097  -6.496  0.00  0.00    -0.270 OA
ATOM     31  H   UNL     1     -13.164  19.253  -7.889  0.00  0.00    +0.155 HD
BRANCH  14  15
ATOM     15  C   UNL     1     -11.713  20.291  -6.004  0.00  0.00    +0.037 A 
ATOM     16  C   UNL     1     -10.378  20.893  -6.018  0.00  0.00    +0.013 A 
ATOM     17  C   UNL     1      -9.290  20.256  -5.317  0.00  0.00    +0.005 A 
ATOM     18  C   UNL     1      -9.536  19.010  -4.595  0.00  0.00    -0.033 A 
ATOM     28  C   UNL     1     -10.872  18.438  -4.593  0.00  0.00    +0.005 A 
ATOM     29  C   UNL     1     -11.939  19.058  -5.280  0.00  0.00    +0.013 A 
BRANCH  18  19
ATOM     19  C   UNL     1      -8.430  18.251  -3.837  0.00  0.00    +0.119 C 
BRANCH  19  20
ATOM     20  N   UNL     1      -8.859  17.338  -2.736  0.00  0.00    -0.302 NA
ATOM     21  C   UNL     1      -7.995  17.504  -1.483  0.00  0.00    +0.066 C 
ATOM     22  C   UNL     1      -8.472  16.557  -0.334  0.00  0.00    -0.064 C 
ATOM     23  N   UNL     1      -8.442  15.108  -0.825  0.00  0.00    +0.379 N 
ATOM     24  C   UNL     1      -8.834  14.211   0.272  0.00  0.00    -0.096 C 
ATOM     25  H   UNL     1      -7.389  14.867  -1.100  0.00  0.00    -0.082 HD
ATOM     26  C   UNL     1      -9.296  14.935  -2.072  0.00  0.00    -0.064 C 
ATOM     27  C   UNL     1      -8.833  15.902  -3.198  0.00  0.00    +0.066 C 
ENDBRANCH  19  20
ENDBRANCH  18  19
ENDBRANCH  14  15
ENDBRANCH  12  13
TORSDOF 6
ENDMDL
