MODEL 1
REMARK VINA RESULT:      -8.1      0.000      0.000
REMARK  Name = C:\Users\Docking\Desktop\test protocol\1iep_ligandH.pdb
REMARK  8 active torsions:
REMARK  status: ('A' for Active; 'I' for Inactive)
REMARK    1  A    between atoms: _5  and  _11
REMARK    2  A    between atoms: _19  and  _21
REMARK    3  A    between atoms: _22  and  _66
REMARK    4  A    between atoms: _27  and  _30
REMARK    5  A    between atoms: _32  and  _33
REMARK    6  A    between atoms: _38  and  _43
REMARK    7  A    between atoms: _43  and  _46
REMARK    8  A    between atoms: _53  and  _55
REMARK                            x       y       z     vdW  Elec       q    Type
REMARK                         _______ _______ _______ _____ _____    ______ ____
ROOT
ATOM     10  C   UNL     1     -15.378  21.479  -7.337  0.00  0.00    +0.038 A 
ATOM     11  C   UNL     1     -14.206  21.403  -8.132  0.00  0.00    +0.047 A 
ATOM     12  C   UNL     1     -13.284  22.525  -8.222  0.00  0.00    +0.035 A 
ATOM     32  C   UNL     1     -13.585  23.708  -7.487  0.00  0.00    +0.024 A 
ATOM     33  C   UNL     1     -14.773  23.803  -6.675  0.00  0.00    +0.007 A 
ATOM     34  C   UNL     1     -15.687  22.701  -6.584  0.00  0.00    -0.029 A 
ATOM     35  C   UNL     1     -16.948  22.861  -5.703  0.00  0.00    +0.045 C 
ENDROOT
BRANCH  10   9
ATOM      4  C   UNL     1     -19.023  18.860  -9.037  0.00  0.00    +0.077 A 
ATOM      5  C   UNL     1     -19.272  19.790 -10.101  0.00  0.00    +0.048 A 
ATOM      6  C   UNL     1     -18.444  20.933 -10.171  0.00  0.00    +0.116 A 
ATOM      7  N   UNL     1     -17.444  21.122  -9.241  0.00  0.00    -0.223 NA
ATOM      8  C   UNL     1     -17.232  20.206  -8.227  0.00  0.00    +0.220 A 
ATOM      9  N   UNL     1     -16.228  20.372  -7.286  0.00  0.00    -0.283 N 
ATOM     36  H   UNL     1     -16.108  19.678  -6.548  0.00  0.00    +0.155 HD
ATOM     37  N   UNL     1     -18.010  19.108  -8.137  0.00  0.00    -0.214 NA
BRANCH   4   3
ATOM      1  C   UNL     1     -21.965  16.357  -8.424  0.00  0.00    +0.020 A 
ATOM      2  C   UNL     1     -21.252  17.598  -8.617  0.00  0.00    +0.013 A 
ATOM      3  C   UNL     1     -19.810  17.604  -8.832  0.00  0.00    +0.019 A 
ATOM     38  C   UNL     1     -19.115  16.325  -8.847  0.00  0.00    +0.120 A 
ATOM     39  N   UNL     1     -19.828  15.146  -8.657  0.00  0.00    -0.263 NA
ATOM     40  C   UNL     1     -21.215  15.128  -8.448  0.00  0.00    +0.111 A 
ENDBRANCH   4   3
ENDBRANCH  10   9
BRANCH  12  13
ATOM     13  N   UNL     1     -12.082  22.509  -9.020  0.00  0.00    -0.281 N 
ATOM     14  C   UNL     1     -10.819  22.081  -8.647  0.00  0.00    +0.248 C 
ATOM     30  O   UNL     1     -10.480  21.844  -7.497  0.00  0.00    -0.270 OA
ATOM     31  H   UNL     1     -12.175  22.855  -9.975  0.00  0.00    +0.155 HD
BRANCH  14  15
ATOM     15  C   UNL     1      -9.776  21.903  -9.703  0.00  0.00    +0.037 A 
ATOM     16  C   UNL     1      -8.842  20.775  -9.667  0.00  0.00    +0.013 A 
ATOM     17  C   UNL     1      -7.835  20.637 -10.689  0.00  0.00    +0.005 A 
ATOM     18  C   UNL     1      -7.757  21.631 -11.757  0.00  0.00    -0.033 A 
ATOM     28  C   UNL     1      -8.700  22.738 -11.771  0.00  0.00    +0.005 A 
ATOM     29  C   UNL     1      -9.688  22.876 -10.771  0.00  0.00    +0.013 A 
BRANCH  18  19
ATOM     19  C   UNL     1      -6.701  21.575 -12.877  0.00  0.00    +0.119 C 
BRANCH  19  20
ATOM     20  N   UNL     1      -6.909  20.572 -13.963  0.00  0.00    -0.302 NA
ATOM     21  C   UNL     1      -5.601  20.217 -14.676  0.00  0.00    +0.066 C 
ATOM     22  C   UNL     1      -5.834  19.150 -15.795  0.00  0.00    -0.064 C 
ATOM     23  N   UNL     1      -6.868  19.677 -16.791  0.00  0.00    +0.379 N 
ATOM     24  C   UNL     1      -7.046  18.700 -17.876  0.00  0.00    -0.096 C 
ATOM     25  H   UNL     1      -6.459  20.611 -17.241  0.00  0.00    -0.082 HD
ATOM     26  C   UNL     1      -8.171  20.034 -16.090  0.00  0.00    -0.064 C 
ATOM     27  C   UNL     1      -7.924  21.073 -14.961  0.00  0.00    +0.066 C 
ENDBRANCH  19  20
ENDBRANCH  18  19
ENDBRANCH  14  15
ENDBRANCH  12  13
TORSDOF 6
ENDMDL
MODEL 2
REMARK VINA RESULT:      -7.9      1.152      1.418
REMARK  Name = C:\Users\Docking\Desktop\test protocol\1iep_ligandH.pdb
REMARK  8 active torsions:
REMARK  status: ('A' for Active; 'I' for Inactive)
REMARK    1  A    between atoms: _5  and  _11
REMARK    2  A    between atoms: _19  and  _21
REMARK    3  A    between atoms: _22  and  _66
REMARK    4  A    between atoms: _27  and  _30
REMARK    5  A    between atoms: _32  and  _33
REMARK    6  A    between atoms: _38  and  _43
REMARK    7  A    between atoms: _43  and  _46
REMARK    8  A    between atoms: _53  and  _55
REMARK                            x       y       z     vdW  Elec       q    Type
REMARK                         _______ _______ _______ _____ _____    ______ ____
ROOT
ATOM     10  C   UNL     1     -14.511  20.425  -6.884  0.00  0.00    +0.038 A 
ATOM     11  C   UNL     1     -13.521  20.594  -7.886  0.00  0.00    +0.047 A 
ATOM     12  C   UNL     1     -12.497  21.620  -7.767  0.00  0.00    +0.035 A 
ATOM     32  C   UNL     1     -12.509  22.456  -6.612  0.00  0.00    +0.024 A 
ATOM     33  C   UNL     1     -13.509  22.299  -5.585  0.00  0.00    +0.007 A 
ATOM     34  C   UNL     1     -14.523  21.290  -5.698  0.00  0.00    -0.029 A 
ATOM     35  C   UNL     1     -15.573  21.172  -4.569  0.00  0.00    +0.045 C 
ENDROOT
BRANCH  10   9
ATOM      4  C   UNL     1     -18.809  18.885  -8.364  0.00  0.00    +0.077 A 
ATOM      5  C   UNL     1     -19.186  20.192  -8.821  0.00  0.00    +0.048 A 
ATOM      6  C   UNL     1     -18.247  21.234  -8.651  0.00  0.00    +0.116 A 
ATOM      7  N   UNL     1     -17.026  20.978  -8.066  0.00  0.00    -0.223 NA
ATOM      8  C   UNL     1     -16.696  19.707  -7.634  0.00  0.00    +0.220 A 
ATOM      9  N   UNL     1     -15.471  19.424  -7.050  0.00  0.00    -0.283 N 
ATOM     36  H   UNL     1     -15.268  18.475  -6.737  0.00  0.00    +0.155 HD
ATOM     37  N   UNL     1     -17.575  18.694  -7.784  0.00  0.00    -0.214 NA
BRANCH   4   3
ATOM      1  C   UNL     1     -21.952  16.563  -8.542  0.00  0.00    +0.020 A 
ATOM      2  C   UNL     1     -21.146  17.757  -8.427  0.00  0.00    +0.013 A 
ATOM      3  C   UNL     1     -19.691  17.681  -8.477  0.00  0.00    +0.019 A 
ATOM     38  C   UNL     1     -19.079  16.372  -8.645  0.00  0.00    +0.120 A 
ATOM     39  N   UNL     1     -19.880  15.239  -8.751  0.00  0.00    -0.263 NA
ATOM     40  C   UNL     1     -21.281  15.300  -8.703  0.00  0.00    +0.111 A 
ENDBRANCH   4   3
ENDBRANCH  10   9
BRANCH  12  13
ATOM     13  N   UNL     1     -11.472  21.843  -8.755  0.00  0.00    -0.281 N 
ATOM     14  C   UNL     1     -10.108  21.632  -8.631  0.00  0.00    +0.248 C 
ATOM     30  O   UNL     1      -9.536  21.419  -7.573  0.00  0.00    -0.270 OA
ATOM     31  H   UNL     1     -11.790  22.201  -9.656  0.00  0.00    +0.155 HD
BRANCH  14  15
ATOM     15  C   UNL     1      -9.256  21.678  -9.858  0.00  0.00    +0.037 A 
ATOM     16  C   UNL     1      -9.422  22.733 -10.860  0.00  0.00    +0.013 A 
ATOM     17  C   UNL     1      -8.598  22.745 -12.043  0.00  0.00    +0.005 A 
ATOM     18  C   UNL     1      -7.598  21.696 -12.229  0.00  0.00    -0.033 A 
ATOM     28  C   UNL     1      -7.451  20.664 -11.216  0.00  0.00    +0.005 A 
ATOM     29  C   UNL     1      -8.257  20.649 -10.056  0.00  0.00    +0.013 A 
BRANCH  18  19
ATOM     19  C   UNL     1      -6.690  21.617 -13.470  0.00  0.00    +0.119 C 
BRANCH  19  20
ATOM     20  N   UNL     1      -7.216  20.879 -14.657  0.00  0.00    -0.302 NA
ATOM     21  C   UNL     1      -6.840  19.395 -14.623  0.00  0.00    +0.066 C 
ATOM     22  C   UNL     1      -7.418  18.633 -15.860  0.00  0.00    -0.064 C 
ATOM     23  N   UNL     1      -6.909  19.292 -17.144  0.00  0.00    +0.379 N 
ATOM     24  C   UNL     1      -7.404  18.543 -18.308  0.00  0.00    -0.096 C 
ATOM     25  H   UNL     1      -5.797  19.220 -17.142  0.00  0.00    -0.082 HD
ATOM     26  C   UNL     1      -7.276  20.768 -17.184  0.00  0.00    -0.064 C 
ATOM     27  C   UNL     1      -6.723  21.510 -15.935  0.00  0.00    +0.066 C 
ENDBRANCH  19  20
ENDBRANCH  18  19
ENDBRANCH  14  15
ENDBRANCH  12  13
TORSDOF 6
ENDMDL
MODEL 3
REMARK VINA RESULT:      -7.8      7.268     12.006
REMARK  Name = C:\Users\Docking\Desktop\test protocol\1iep_ligandH.pdb
REMARK  8 active torsions:
REMARK  status: ('A' for Active; 'I' for Inactive)
REMARK    1  A    between atoms: _5  and  _11
REMARK    2  A    between atoms: _19  and  _21
REMARK    3  A    between atoms: _22  and  _66
REMARK    4  A    between atoms: _27  and  _30
REMARK    5  A    between atoms: _32  and  _33
REMARK    6  A    between atoms: _38  and  _43
REMARK    7  A    between atoms: _43  and  _46
REMARK    8  A    between atoms: _53  and  _55
REMARK                            x       y       z     vdW  Elec       q    Type
REMARK                         _______ _______ _______ _____ _____    ______ ____
ROOT
ATOM     10  C   UNL     1      -9.475  17.751  -4.201  0.00  0.00    +0.038 A 
ATOM     11  C   UNL     1     -10.808  17.993  -4.619  0.00  0.00    +0.047 A 
ATOM     12  C   UNL     1     -11.352  19.341  -4.660  0.00  0.00    +0.035 A 
ATOM     32  C   UNL     1     -10.508  20.422  -4.272  0.00  0.00    +0.024 A 
ATOM     33  C   UNL     1      -9.150  20.195  -3.844  0.00  0.00    +0.007 A 
ATOM     34  C   UNL     1      -8.609  18.866  -3.798  0.00  0.00    -0.029 A 
ATOM     35  C   UNL     1      -7.148  18.681  -3.325  0.00  0.00    +0.045 C 
ENDROOT
BRANCH  10   9
ATOM      4  C   UNL     1      -8.501  13.639  -1.926  0.00  0.00    +0.077 A 
ATOM      5  C   UNL     1      -8.942  14.164  -0.665  0.00  0.00    +0.048 A 
ATOM      6  C   UNL     1      -9.405  15.498  -0.644  0.00  0.00    +0.116 A 
ATOM      7  N   UNL     1      -9.422  16.244  -1.803  0.00  0.00    -0.223 NA
ATOM      8  C   UNL     1      -8.989  15.708  -3.002  0.00  0.00    +0.220 A 
ATOM      9  N   UNL     1      -9.005  16.436  -4.181  0.00  0.00    -0.283 N 
ATOM     36  H   UNL     1      -8.670  16.007  -5.043  0.00  0.00    +0.155 HD
ATOM     37  N   UNL     1      -8.540  14.436  -3.048  0.00  0.00    -0.214 NA
BRANCH   4   3
ATOM      1  C   UNL     1      -6.660  10.234  -1.364  0.00  0.00    +0.020 A 
ATOM      2  C   UNL     1      -7.128  11.582  -1.138  0.00  0.00    +0.013 A 
ATOM      3  C   UNL     1      -7.988  12.245  -2.110  0.00  0.00    +0.019 A 
ATOM     38  C   UNL     1      -8.359  11.510  -3.311  0.00  0.00    +0.120 A 
ATOM     39  N   UNL     1      -7.891  10.214  -3.502  0.00  0.00    -0.263 NA
ATOM     40  C   UNL     1      -7.062   9.566  -2.574  0.00  0.00    +0.111 A 
ENDBRANCH   4   3
ENDBRANCH  10   9
BRANCH  12  13
ATOM     13  N   UNL     1     -12.701  19.646  -5.067  0.00  0.00    -0.281 N 
ATOM     14  C   UNL     1     -13.125  20.191  -6.269  0.00  0.00    +0.248 C 
ATOM     30  O   UNL     1     -12.385  20.698  -7.097  0.00  0.00    -0.270 OA
ATOM     31  H   UNL     1     -13.432  19.436  -4.388  0.00  0.00    +0.155 HD
BRANCH  14  15
ATOM     15  C   UNL     1     -14.585  20.182  -6.589  0.00  0.00    +0.037 A 
ATOM     16  C   UNL     1     -15.074  20.562  -7.917  0.00  0.00    +0.013 A 
ATOM     17  C   UNL     1     -16.488  20.562  -8.195  0.00  0.00    +0.005 A 
ATOM     18  C   UNL     1     -17.425  20.179  -7.141  0.00  0.00    -0.033 A 
ATOM     28  C   UNL     1     -16.913  19.802  -5.834  0.00  0.00    +0.005 A 
ATOM     29  C   UNL     1     -15.527  19.802  -5.558  0.00  0.00    +0.013 A 
BRANCH  18  19
ATOM     19  C   UNL     1     -18.952  20.171  -7.342  0.00  0.00    +0.119 C 
BRANCH  19  20
ATOM     20  N   UNL     1     -19.616  18.841  -7.479  0.00  0.00    -0.302 NA
ATOM     21  C   UNL     1     -18.770  17.856  -8.290  0.00  0.00    +0.066 C 
ATOM     22  C   UNL     1     -19.469  16.463  -8.404  0.00  0.00    -0.064 C 
ATOM     23  N   UNL     1     -20.851  16.639  -9.037  0.00  0.00    +0.379 N 
ATOM     24  C   UNL     1     -21.488  15.324  -9.199  0.00  0.00    -0.096 C 
ATOM     25  H   UNL     1     -20.704  17.071 -10.054  0.00  0.00    -0.082 HD
ATOM     26  C   UNL     1     -21.698  17.619  -8.238  0.00  0.00    -0.064 C 
ATOM     27  C   UNL     1     -20.981  18.991  -8.106  0.00  0.00    +0.066 C 
ENDBRANCH  19  20
ENDBRANCH  18  19
ENDBRANCH  14  15
ENDBRANCH  12  13
TORSDOF 6
ENDMDL
MODEL 4
REMARK VINA RESULT:      -7.8      7.834     15.848
REMARK  Name = C:\Users\Docking\Desktop\test protocol\1iep_ligandH.pdb
REMARK  8 active torsions:
REMARK  status: ('A' for Active; 'I' for Inactive)
REMARK    1  A    between atoms: _5  and  _11
REMARK    2  A    between atoms: _19  and  _21
REMARK    3  A    between atoms: _22  and  _66
REMARK    4  A    between atoms: _27  and  _30
REMARK    5  A    between atoms: _32  and  _33
REMARK    6  A    between atoms: _38  and  _43
REMARK    7  A    between atoms: _43  and  _46
REMARK    8  A    between atoms: _53  and  _55
REMARK                            x       y       z     vdW  Elec       q    Type
REMARK                         _______ _______ _______ _____ _____    ______ ____
ROOT
ATOM     10  C   UNL     1     -20.378  18.433  -7.978  0.00  0.00    +0.038 A 
ATOM     11  C   UNL     1     -21.764  18.139  -8.031  0.00  0.00    +0.047 A 
ATOM     12  C   UNL     1     -22.257  16.791  -7.799  0.00  0.00    +0.035 A 
ATOM     32  C   UNL     1     -21.309  15.765  -7.512  0.00  0.00    +0.024 A 
ATOM     33  C   UNL     1     -19.896  16.046  -7.455  0.00  0.00    +0.007 A 
ATOM     34  C   UNL     1     -19.404  17.374  -7.686  0.00  0.00    -0.029 A 
ATOM     35  C   UNL     1     -17.878  17.617  -7.618  0.00  0.00    +0.045 C 
ENDROOT
BRANCH  10   9
ATOM      4  C   UNL     1     -18.913  21.959 -10.887  0.00  0.00    +0.077 A 
ATOM      5  C   UNL     1     -18.957  21.107 -12.040  0.00  0.00    +0.048 A 
ATOM      6  C   UNL     1     -19.356  19.766 -11.840  0.00  0.00    +0.116 A 
ATOM      7  N   UNL     1     -19.683  19.321 -10.577  0.00  0.00    -0.223 NA
ATOM      8  C   UNL     1     -19.628  20.169  -9.486  0.00  0.00    +0.220 A 
ATOM      9  N   UNL     1     -19.960  19.746  -8.209  0.00  0.00    -0.283 N 
ATOM     36  H   UNL     1     -19.899  20.400  -7.429  0.00  0.00    +0.155 HD
ATOM     37  N   UNL     1     -19.249  21.454  -9.650  0.00  0.00    -0.214 NA
BRANCH   4   3
ATOM      1  C   UNL     1     -18.645  25.725 -11.911  0.00  0.00    +0.020 A 
ATOM      2  C   UNL     1     -19.063  24.342 -11.906  0.00  0.00    +0.013 A 
ATOM      3  C   UNL     1     -18.515  23.402 -10.936  0.00  0.00    +0.019 A 
ATOM     38  C   UNL     1     -17.539  23.897  -9.977  0.00  0.00    +0.120 A 
ATOM     39  N   UNL     1     -17.155  25.234 -10.007  0.00  0.00    -0.263 NA
ATOM     40  C   UNL     1     -17.674  26.147 -10.936  0.00  0.00    +0.111 A 
ENDBRANCH   4   3
ENDBRANCH  10   9
BRANCH  12  13
ATOM     13  N   UNL     1     -23.652  16.431  -7.848  0.00  0.00    -0.281 N 
ATOM     14  C   UNL     1     -24.653  16.778  -6.955  0.00  0.00    +0.248 C 
ATOM     30  O   UNL     1     -24.457  17.277  -5.857  0.00  0.00    -0.270 OA
ATOM     31  H   UNL     1     -23.936  15.849  -8.636  0.00  0.00    +0.155 HD
BRANCH  14  15
ATOM     15  C   UNL     1     -26.076  16.520  -7.330  0.00  0.00    +0.037 A 
ATOM     16  C   UNL     1     -27.095  17.567  -7.211  0.00  0.00    +0.013 A 
ATOM     17  C   UNL     1     -28.464  17.287  -7.564  0.00  0.00    +0.005 A 
ATOM     18  C   UNL     1     -28.822  15.953  -8.042  0.00  0.00    -0.033 A 
ATOM     28  C   UNL     1     -27.791  14.935  -8.155  0.00  0.00    +0.005 A 
ATOM     29  C   UNL     1     -26.448  15.206  -7.809  0.00  0.00    +0.013 A 
BRANCH  18  19
ATOM     19  C   UNL     1     -30.262  15.559  -8.420  0.00  0.00    +0.119 C 
BRANCH  19  20
ATOM     20  N   UNL     1     -30.503  15.116  -9.826  0.00  0.00    -0.302 NA
ATOM     21  C   UNL     1     -31.431  16.073 -10.580  0.00  0.00    +0.066 C 
ATOM     22  C   UNL     1     -31.653  15.606 -12.055  0.00  0.00    -0.064 C 
ATOM     23  N   UNL     1     -32.222  14.186 -12.057  0.00  0.00    +0.379 N 
ATOM     24  C   UNL     1     -32.486  13.766 -13.441  0.00  0.00    -0.096 C 
ATOM     25  H   UNL     1     -33.198  14.211 -11.519  0.00  0.00    -0.082 HD
ATOM     26  C   UNL     1     -31.306  13.228 -11.308  0.00  0.00    -0.064 C 
ATOM     27  C   UNL     1     -31.068  13.717  -9.852  0.00  0.00    +0.066 C 
ENDBRANCH  19  20
ENDBRANCH  18  19
ENDBRANCH  14  15
ENDBRANCH  12  13
TORSDOF 6
ENDMDL
MODEL 5
REMARK VINA RESULT:      -7.7      7.646     12.164
REMARK  Name = C:\Users\Docking\Desktop\test protocol\1iep_ligandH.pdb
REMARK  8 active torsions:
REMARK  status: ('A' for Active; 'I' for Inactive)
REMARK    1  A    between atoms: _5  and  _11
REMARK    2  A    between atoms: _19  and  _21
REMARK    3  A    between atoms: _22  and  _66
REMARK    4  A    between atoms: _27  and  _30
REMARK    5  A    between atoms: _32  and  _33
REMARK    6  A    between atoms: _38  and  _43
REMARK    7  A    between atoms: _43  and  _46
REMARK    8  A    between atoms: _53  and  _55
REMARK                            x       y       z     vdW  Elec       q    Type
REMARK                         _______ _______ _______ _____ _____    ______ ____
ROOT
ATOM     10  C   UNL     1      -9.665  17.472  -3.761  0.00  0.00    +0.038 A 
ATOM     11  C   UNL     1     -10.986  17.668  -4.238  0.00  0.00    +0.047 A 
ATOM     12  C   UNL     1     -11.626  18.972  -4.169  0.00  0.00    +0.035 A 
ATOM     32  C   UNL     1     -10.889  20.057  -3.610  0.00  0.00    +0.024 A 
ATOM     33  C   UNL     1      -9.545  19.876  -3.120  0.00  0.00    +0.007 A 
ATOM     34  C   UNL     1      -8.911  18.590  -3.183  0.00  0.00    -0.029 A 
ATOM     35  C   UNL     1      -7.471  18.452  -2.636  0.00  0.00    +0.045 C 
ENDROOT
BRANCH  10   9
ATOM      4  C   UNL     1      -8.349  13.278  -1.834  0.00  0.00    +0.077 A 
ATOM      5  C   UNL     1      -8.801  13.668  -0.529  0.00  0.00    +0.048 A 
ATOM      6  C   UNL     1      -9.359  14.959  -0.395  0.00  0.00    +0.116 A 
ATOM      7  N   UNL     1      -9.454  15.789  -1.491  0.00  0.00    -0.223 NA
ATOM      8  C   UNL     1      -9.007  15.382  -2.735  0.00  0.00    +0.220 A 
ATOM      9  N   UNL     1      -9.100  16.198  -3.852  0.00  0.00    -0.283 N 
ATOM     36  H   UNL     1      -8.752  15.864  -4.750  0.00  0.00    +0.155 HD
ATOM     37  N   UNL     1      -8.468  14.155  -2.888  0.00  0.00    -0.214 NA
BRANCH   4   3
ATOM      1  C   UNL     1      -7.334   9.960  -3.639  0.00  0.00    +0.020 A 
ATOM      2  C   UNL     1      -7.947  11.246  -3.398  0.00  0.00    +0.013 A 
ATOM      3  C   UNL     1      -7.738  11.945  -2.136  0.00  0.00    +0.019 A 
ATOM     38  C   UNL     1      -6.897  11.310  -1.132  0.00  0.00    +0.120 A 
ATOM     39  N   UNL     1      -6.322  10.071  -1.392  0.00  0.00    -0.263 NA
ATOM     40  C   UNL     1      -6.516   9.388  -2.602  0.00  0.00    +0.111 A 
ENDBRANCH   4   3
ENDBRANCH  10   9
BRANCH  12  13
ATOM     13  N   UNL     1     -12.968  19.229  -4.630  0.00  0.00    -0.281 N 
ATOM     14  C   UNL     1     -13.366  20.034  -5.685  0.00  0.00    +0.248 C 
ATOM     30  O   UNL     1     -12.638  20.827  -6.263  0.00  0.00    -0.270 OA
ATOM     31  H   UNL     1     -13.714  18.761  -4.116  0.00  0.00    +0.155 HD
BRANCH  14  15
ATOM     15  C   UNL     1     -14.782  19.955  -6.158  0.00  0.00    +0.037 A 
ATOM     16  C   UNL     1     -15.147  20.324  -7.528  0.00  0.00    +0.013 A 
ATOM     17  C   UNL     1     -16.523  20.256  -7.954  0.00  0.00    +0.005 A 
ATOM     18  C   UNL     1     -17.544  19.815  -7.007  0.00  0.00    -0.033 A 
ATOM     28  C   UNL     1     -17.153  19.450  -5.655  0.00  0.00    +0.005 A 
ATOM     29  C   UNL     1     -15.806  19.516  -5.234  0.00  0.00    +0.013 A 
BRANCH  18  19
ATOM     19  C   UNL     1     -19.039  19.732  -7.367  0.00  0.00    +0.119 C 
BRANCH  19  20
ATOM     20  N   UNL     1     -19.507  20.541  -8.532  0.00  0.00    -0.302 NA
ATOM     21  C   UNL     1     -19.837  21.982  -8.135  0.00  0.00    +0.066 C 
ATOM     22  C   UNL     1     -20.303  22.821  -9.369  0.00  0.00    -0.064 C 
ATOM     23  N   UNL     1     -21.516  22.145 -10.012  0.00  0.00    +0.379 N 
ATOM     24  C   UNL     1     -21.993  22.961 -11.138  0.00  0.00    -0.096 C 
ATOM     25  H   UNL     1     -22.329  22.113  -9.249  0.00  0.00    -0.082 HD
ATOM     26  C   UNL     1     -21.198  20.710 -10.407  0.00  0.00    -0.064 C 
ATOM     27  C   UNL     1     -20.707  19.894  -9.179  0.00  0.00    +0.066 C 
ENDBRANCH  19  20
ENDBRANCH  18  19
ENDBRANCH  14  15
ENDBRANCH  12  13
TORSDOF 6
ENDMDL
