MODEL 1
REMARK VINA RESULT:      -8.7      0.000      0.000
REMARK  Name = C:\Users\Docking\Desktop\test protocol\1iep_ligandH.pdb
REMARK  8 active torsions:
REMARK  status: ('A' for Active; 'I' for Inactive)
REMARK    1  A    between atoms: _5  and  _11
REMARK    2  A    between atoms: _19  and  _21
REMARK    3  A    between atoms: _22  and  _66
REMARK    4  A    between atoms: _27  and  _30
REMARK    5  A    between atoms: _32  and  _33
REMARK    6  A    between atoms: _38  and  _43
REMARK    7  A    between atoms: _43  and  _46
REMARK    8  A    between atoms: _53  and  _55
REMARK                            x       y       z     vdW  Elec       q    Type
REMARK                         _______ _______ _______ _____ _____    ______ ____
ROOT
ATOM     10  C   UNL     1     -15.249  22.268  -8.311  0.00  0.00    +0.038 A 
ATOM     11  C   UNL     1     -14.025  22.066  -8.998  0.00  0.00    +0.047 A 
ATOM     12  C   UNL     1     -13.103  23.167  -9.230  0.00  0.00    +0.035 A 
ATOM     32  C   UNL     1     -13.458  24.459  -8.746  0.00  0.00    +0.024 A 
ATOM     33  C   UNL     1     -14.698  24.683  -8.047  0.00  0.00    +0.007 A 
ATOM     34  C   UNL     1     -15.614  23.601  -7.817  0.00  0.00    -0.029 A 
ATOM     35  C   UNL     1     -16.933  23.900  -7.067  0.00  0.00    +0.045 C 
ENDROOT
BRANCH  10   9
ATOM      4  C   UNL     1     -18.704  19.276  -9.778  0.00  0.00    +0.077 A 
ATOM      5  C   UNL     1     -18.849  19.963 -11.029  0.00  0.00    +0.048 A 
ATOM      6  C   UNL     1     -18.021  21.085 -11.253  0.00  0.00    +0.116 A 
ATOM      7  N   UNL     1     -17.118  21.482 -10.290  0.00  0.00    -0.223 NA
ATOM      8  C   UNL     1     -17.005  20.799  -9.094  0.00  0.00    +0.220 A 
ATOM      9  N   UNL     1     -16.098  21.176  -8.115  0.00  0.00    -0.283 N 
ATOM     36  H   UNL     1     -16.050  20.650  -7.243  0.00  0.00    +0.155 HD
ATOM     37  N   UNL     1     -17.785  19.724  -8.855  0.00  0.00    -0.214 NA
BRANCH   4   3
ATOM      1  C   UNL     1     -19.863  15.577  -9.252  0.00  0.00    +0.020 A 
ATOM      2  C   UNL     1     -19.052  16.707  -9.642  0.00  0.00    +0.013 A 
ATOM      3  C   UNL     1     -19.505  18.070  -9.395  0.00  0.00    +0.019 A 
ATOM     38  C   UNL     1     -20.794  18.257  -8.746  0.00  0.00    +0.120 A 
ATOM     39  N   UNL     1     -21.554  17.150  -8.383  0.00  0.00    -0.263 NA
ATOM     40  C   UNL     1     -21.129  15.833  -8.617  0.00  0.00    +0.111 A 
ENDBRANCH   4   3
ENDBRANCH  10   9
BRANCH  12  13
ATOM     13  N   UNL     1     -11.849  23.024  -9.928  0.00  0.00    -0.281 N 
ATOM     14  C   UNL     1     -10.596  22.783  -9.389  0.00  0.00    +0.248 C 
ATOM     30  O   UNL     1     -10.328  22.867  -8.199  0.00  0.00    -0.270 OA
ATOM     31  H   UNL     1     -11.891  23.111 -10.944  0.00  0.00    +0.155 HD
BRANCH  14  15
ATOM     15  C   UNL     1      -9.475  22.409 -10.304  0.00  0.00    +0.037 A 
ATOM     16  C   UNL     1      -9.172  23.204 -11.497  0.00  0.00    +0.013 A 
ATOM     17  C   UNL     1      -8.096  22.811 -12.373  0.00  0.00    +0.005 A 
ATOM     18  C   UNL     1      -7.314  21.618 -12.057  0.00  0.00    -0.033 A 
ATOM     28  C   UNL     1      -7.634  20.852 -10.864  0.00  0.00    +0.005 A 
ATOM     29  C   UNL     1      -8.688  21.233 -10.004  0.00  0.00    +0.013 A 
BRANCH  18  19
ATOM     19  C   UNL     1      -6.162  21.114 -12.946  0.00  0.00    +0.119 C 
BRANCH  19  20
ATOM     20  N   UNL     1      -6.476  20.836 -14.379  0.00  0.00    -0.302 NA
ATOM     21  C   UNL     1      -6.732  19.347 -14.632  0.00  0.00    +0.066 C 
ATOM     22  C   UNL     1      -7.081  19.077 -16.132  0.00  0.00    -0.064 C 
ATOM     23  N   UNL     1      -5.943  19.589 -17.018  0.00  0.00    +0.379 N 
ATOM     24  C   UNL     1      -6.241  19.285 -18.425  0.00  0.00    -0.096 C 
ATOM     25  H   UNL     1      -5.020  19.030 -16.739  0.00  0.00    -0.082 HD
ATOM     26  C   UNL     1      -5.680  21.068 -16.770  0.00  0.00    -0.064 C 
ATOM     27  C   UNL     1      -5.363  21.329 -15.271  0.00  0.00    +0.066 C 
ENDBRANCH  19  20
ENDBRANCH  18  19
ENDBRANCH  14  15
ENDBRANCH  12  13
TORSDOF 6
ENDMDL
MODEL 2
REMARK VINA RESULT:      -8.3      1.672      1.879
REMARK  Name = C:\Users\Docking\Desktop\test protocol\1iep_ligandH.pdb
REMARK  8 active torsions:
REMARK  status: ('A' for Active; 'I' for Inactive)
REMARK    1  A    between atoms: _5  and  _11
REMARK    2  A    between atoms: _19  and  _21
REMARK    3  A    between atoms: _22  and  _66
REMARK    4  A    between atoms: _27  and  _30
REMARK    5  A    between atoms: _32  and  _33
REMARK    6  A    between atoms: _38  and  _43
REMARK    7  A    between atoms: _43  and  _46
REMARK    8  A    between atoms: _53  and  _55
REMARK                            x       y       z     vdW  Elec       q    Type
REMARK                         _______ _______ _______ _____ _____    ______ ____
ROOT
ATOM     10  C   UNL     1     -14.289  20.497  -6.956  0.00  0.00    +0.038 A 
ATOM     11  C   UNL     1     -13.302  20.670  -7.959  0.00  0.00    +0.047 A 
ATOM     12  C   UNL     1     -12.273  21.691  -7.835  0.00  0.00    +0.035 A 
ATOM     32  C   UNL     1     -12.277  22.516  -6.673  0.00  0.00    +0.024 A 
ATOM     33  C   UNL     1     -13.274  22.355  -5.644  0.00  0.00    +0.007 A 
ATOM     34  C   UNL     1     -14.293  21.352  -5.762  0.00  0.00    -0.029 A 
ATOM     35  C   UNL     1     -15.340  21.228  -4.631  0.00  0.00    +0.045 C 
ENDROOT
BRANCH  10   9
ATOM      4  C   UNL     1     -18.471  18.910  -8.695  0.00  0.00    +0.077 A 
ATOM      5  C   UNL     1     -18.773  20.179  -9.291  0.00  0.00    +0.048 A 
ATOM      6  C   UNL     1     -17.829  21.217  -9.121  0.00  0.00    +0.116 A 
ATOM      7  N   UNL     1     -16.673  20.990  -8.406  0.00  0.00    -0.223 NA
ATOM      8  C   UNL     1     -16.413  19.754  -7.843  0.00  0.00    +0.220 A 
ATOM      9  N   UNL     1     -15.254  19.502  -7.127  0.00  0.00    -0.283 N 
ATOM     36  H   UNL     1     -15.103  18.578  -6.720  0.00  0.00    +0.155 HD
ATOM     37  N   UNL     1     -17.300  18.748  -7.990  0.00  0.00    -0.214 NA
BRANCH   4   3
ATOM      1  C   UNL     1     -21.564  16.531  -8.412  0.00  0.00    +0.020 A 
ATOM      2  C   UNL     1     -20.739  17.712  -8.295  0.00  0.00    +0.013 A 
ATOM      3  C   UNL     1     -19.368  17.715  -8.790  0.00  0.00    +0.019 A 
ATOM     38  C   UNL     1     -18.858  16.498  -9.403  0.00  0.00    +0.120 A 
ATOM     39  N   UNL     1     -19.675  15.375  -9.500  0.00  0.00    -0.263 NA
ATOM     40  C   UNL     1     -20.995  15.360  -9.026  0.00  0.00    +0.111 A 
ENDBRANCH   4   3
ENDBRANCH  10   9
BRANCH  12  13
ATOM     13  N   UNL     1     -11.250  21.918  -8.825  0.00  0.00    -0.281 N 
ATOM     14  C   UNL     1      -9.886  21.708  -8.705  0.00  0.00    +0.248 C 
ATOM     30  O   UNL     1      -9.311  21.493  -7.648  0.00  0.00    -0.270 OA
ATOM     31  H   UNL     1     -11.570  22.277  -9.725  0.00  0.00    +0.155 HD
BRANCH  14  15
ATOM     15  C   UNL     1      -9.036  21.759  -9.933  0.00  0.00    +0.037 A 
ATOM     16  C   UNL     1      -9.183  22.836 -10.915  0.00  0.00    +0.013 A 
ATOM     17  C   UNL     1      -8.362  22.851 -12.100  0.00  0.00    +0.005 A 
ATOM     18  C   UNL     1      -7.385  21.785 -12.308  0.00  0.00    -0.033 A 
ATOM     28  C   UNL     1      -7.256  20.732 -11.315  0.00  0.00    +0.005 A 
ATOM     29  C   UNL     1      -8.060  20.713 -10.153  0.00  0.00    +0.013 A 
BRANCH  18  19
ATOM     19  C   UNL     1      -6.482  21.710 -13.554  0.00  0.00    +0.119 C 
BRANCH  19  20
ATOM     20  N   UNL     1      -7.019  20.987 -14.745  0.00  0.00    -0.302 NA
ATOM     21  C   UNL     1      -6.764  19.479 -14.663  0.00  0.00    +0.066 C 
ATOM     22  C   UNL     1      -7.352  18.734 -15.906  0.00  0.00    -0.064 C 
ATOM     23  N   UNL     1      -6.742  19.318 -17.182  0.00  0.00    +0.379 N 
ATOM     24  C   UNL     1      -7.249  18.582 -18.349  0.00  0.00    -0.096 C 
ATOM     25  H   UNL     1      -5.640  19.159 -17.133  0.00  0.00    -0.082 HD
ATOM     26  C   UNL     1      -6.988  20.818 -17.270  0.00  0.00    -0.064 C 
ATOM     27  C   UNL     1      -6.426  21.544 -16.016  0.00  0.00    +0.066 C 
ENDBRANCH  19  20
ENDBRANCH  18  19
ENDBRANCH  14  15
ENDBRANCH  12  13
TORSDOF 6
ENDMDL
MODEL 3
REMARK VINA RESULT:      -7.8      7.945     16.218
REMARK  Name = C:\Users\Docking\Desktop\test protocol\1iep_ligandH.pdb
REMARK  8 active torsions:
REMARK  status: ('A' for Active; 'I' for Inactive)
REMARK    1  A    between atoms: _5  and  _11
REMARK    2  A    between atoms: _19  and  _21
REMARK    3  A    between atoms: _22  and  _66
REMARK    4  A    between atoms: _27  and  _30
REMARK    5  A    between atoms: _32  and  _33
REMARK    6  A    between atoms: _38  and  _43
REMARK    7  A    between atoms: _43  and  _46
REMARK    8  A    between atoms: _53  and  _55
REMARK                            x       y       z     vdW  Elec       q    Type
REMARK                         _______ _______ _______ _____ _____    ______ ____
ROOT
ATOM     10  C   UNL     1     -20.096  18.010  -8.336  0.00  0.00    +0.038 A 
ATOM     11  C   UNL     1     -21.482  17.721  -8.258  0.00  0.00    +0.047 A 
ATOM     12  C   UNL     1     -21.962  16.350  -8.194  0.00  0.00    +0.035 A 
ATOM     32  C   UNL     1     -21.002  15.296  -8.210  0.00  0.00    +0.024 A 
ATOM     33  C   UNL     1     -19.589  15.572  -8.290  0.00  0.00    +0.007 A 
ATOM     34  C   UNL     1     -19.110  16.923  -8.356  0.00  0.00    -0.029 A 
ATOM     35  C   UNL     1     -17.584  17.159  -8.447  0.00  0.00    +0.045 C 
ENDROOT
BRANCH  10   9
ATOM      4  C   UNL     1     -18.662  21.895 -10.763  0.00  0.00    +0.077 A 
ATOM      5  C   UNL     1     -18.699  21.199 -12.016  0.00  0.00    +0.048 A 
ATOM      6  C   UNL     1     -19.085  19.840 -11.993  0.00  0.00    +0.116 A 
ATOM      7  N   UNL     1     -19.408  19.233 -10.798  0.00  0.00    -0.223 NA
ATOM      8  C   UNL     1     -19.361  19.933  -9.607  0.00  0.00    +0.220 A 
ATOM      9  N   UNL     1     -19.690  19.345  -8.395  0.00  0.00    -0.283 N 
ATOM     36  H   UNL     1     -19.636  19.894  -7.537  0.00  0.00    +0.155 HD
ATOM     37  N   UNL     1     -18.994  21.232  -9.603  0.00  0.00    -0.214 NA
BRANCH   4   3
ATOM      1  C   UNL     1     -18.397  25.758 -11.319  0.00  0.00    +0.020 A 
ATOM      2  C   UNL     1     -18.801  24.382 -11.494  0.00  0.00    +0.013 A 
ATOM      3  C   UNL     1     -18.278  23.336 -10.625  0.00  0.00    +0.019 A 
ATOM     38  C   UNL     1     -17.341  23.718  -9.579  0.00  0.00    +0.120 A 
ATOM     39  N   UNL     1     -16.970  25.051  -9.434  0.00  0.00    -0.263 NA
ATOM     40  C   UNL     1     -17.465  26.067 -10.266  0.00  0.00    +0.111 A 
ENDBRANCH   4   3
ENDBRANCH  10   9
BRANCH  12  13
ATOM     13  N   UNL     1     -23.358  15.995  -8.122  0.00  0.00    -0.281 N 
ATOM     14  C   UNL     1     -24.271  16.326  -7.134  0.00  0.00    +0.248 C 
ATOM     30  O   UNL     1     -23.972  16.802  -6.048  0.00  0.00    -0.270 OA
ATOM     31  H   UNL     1     -23.717  15.431  -8.892  0.00  0.00    +0.155 HD
BRANCH  14  15
ATOM     15  C   UNL     1     -25.724  16.081  -7.381  0.00  0.00    +0.037 A 
ATOM     16  C   UNL     1     -26.736  17.074  -7.013  0.00  0.00    +0.013 A 
ATOM     17  C   UNL     1     -28.133  16.805  -7.247  0.00  0.00    +0.005 A 
ATOM     18  C   UNL     1     -28.525  15.536  -7.856  0.00  0.00    -0.033 A 
ATOM     28  C   UNL     1     -27.500  14.571  -8.217  0.00  0.00    +0.005 A 
ATOM     29  C   UNL     1     -26.130  14.831  -7.987  0.00  0.00    +0.013 A 
BRANCH  18  19
ATOM     19  C   UNL     1     -29.994  15.156  -8.123  0.00  0.00    +0.119 C 
BRANCH  19  20
ATOM     20  N   UNL     1     -30.316  14.571  -9.459  0.00  0.00    -0.302 NA
ATOM     21  C   UNL     1     -30.951  15.600 -10.399  0.00  0.00    +0.066 C 
ATOM     22  C   UNL     1     -31.261  14.977 -11.799  0.00  0.00    -0.064 C 
ATOM     23  N   UNL     1     -32.178  13.765 -11.623  0.00  0.00    +0.379 N 
ATOM     24  C   UNL     1     -32.518  13.212 -12.942  0.00  0.00    -0.096 C 
ATOM     25  H   UNL     1     -33.123  14.122 -11.152  0.00  0.00    -0.082 HD
ATOM     26  C   UNL     1     -31.555  12.739 -10.688  0.00  0.00    -0.064 C 
ATOM     27  C   UNL     1     -31.224  13.375  -9.310  0.00  0.00    +0.066 C 
ENDBRANCH  19  20
ENDBRANCH  18  19
ENDBRANCH  14  15
ENDBRANCH  12  13
TORSDOF 6
ENDMDL
MODEL 4
REMARK VINA RESULT:      -7.7     11.325     13.807
REMARK  Name = C:\Users\Docking\Desktop\test protocol\1iep_ligandH.pdb
REMARK  8 active torsions:
REMARK  status: ('A' for Active; 'I' for Inactive)
REMARK    1  A    between atoms: _5  and  _11
REMARK    2  A    between atoms: _19  and  _21
REMARK    3  A    between atoms: _22  and  _66
REMARK    4  A    between atoms: _27  and  _30
REMARK    5  A    between atoms: _32  and  _33
REMARK    6  A    between atoms: _38  and  _43
REMARK    7  A    between atoms: _43  and  _46
REMARK    8  A    between atoms: _53  and  _55
REMARK                            x       y       z     vdW  Elec       q    Type
REMARK                         _______ _______ _______ _____ _____    ______ ____
ROOT
ATOM     10  C   UNL     1     -10.678  17.491  -3.742  0.00  0.00    +0.038 A 
ATOM     11  C   UNL     1      -9.752  16.422  -3.854  0.00  0.00    +0.047 A 
ATOM     12  C   UNL     1      -9.560  15.476  -2.767  0.00  0.00    +0.035 A 
ATOM     32  C   UNL     1     -10.329  15.646  -1.579  0.00  0.00    +0.024 A 
ATOM     33  C   UNL     1     -11.274  16.728  -1.447  0.00  0.00    +0.007 A 
ATOM     34  C   UNL     1     -11.466  17.666  -2.516  0.00  0.00    -0.029 A 
ATOM     35  C   UNL     1     -12.487  18.810  -2.317  0.00  0.00    +0.045 C 
ENDROOT
BRANCH  10   9
ATOM      4  C   UNL     1      -9.294  21.305  -6.307  0.00  0.00    +0.077 A 
ATOM      5  C   UNL     1      -8.207  21.585  -5.413  0.00  0.00    +0.048 A 
ATOM      6  C   UNL     1      -8.043  20.728  -4.302  0.00  0.00    +0.116 A 
ATOM      7  N   UNL     1      -8.907  19.672  -4.108  0.00  0.00    -0.223 NA
ATOM      8  C   UNL     1      -9.946  19.431  -4.988  0.00  0.00    +0.220 A 
ATOM      9  N   UNL     1     -10.822  18.370  -4.818  0.00  0.00    -0.283 N 
ATOM     36  H   UNL     1     -11.581  18.230  -5.485  0.00  0.00    +0.155 HD
ATOM     37  N   UNL     1     -10.125  20.235  -6.056  0.00  0.00    -0.214 NA
BRANCH   4   3
ATOM      1  C   UNL     1      -9.494  22.542 -10.012  0.00  0.00    +0.020 A 
ATOM      2  C   UNL     1      -9.177  21.721  -8.866  0.00  0.00    +0.013 A 
ATOM      3  C   UNL     1      -9.596  22.117  -7.527  0.00  0.00    +0.019 A 
ATOM     38  C   UNL     1     -10.341  23.358  -7.382  0.00  0.00    +0.120 A 
ATOM     39  N   UNL     1     -10.631  24.129  -8.503  0.00  0.00    -0.263 NA
ATOM     40  C   UNL     1     -10.231  23.759  -9.796  0.00  0.00    +0.111 A 
ENDBRANCH   4   3
ENDBRANCH  10   9
BRANCH  12  13
ATOM     13  N   UNL     1      -8.629  14.376  -2.820  0.00  0.00    -0.281 N 
ATOM     14  C   UNL     1      -8.299  13.489  -1.808  0.00  0.00    +0.248 C 
ATOM     30  O   UNL     1      -8.598  13.639  -0.633  0.00  0.00    -0.270 OA
ATOM     31  H   UNL     1      -8.156  14.234  -3.713  0.00  0.00    +0.155 HD
BRANCH  14  15
ATOM     15  C   UNL     1      -7.511  12.266  -2.149  0.00  0.00    +0.037 A 
ATOM     16  C   UNL     1      -6.614  11.643  -1.172  0.00  0.00    +0.013 A 
ATOM     17  C   UNL     1      -5.852  10.474  -1.532  0.00  0.00    +0.005 A 
ATOM     18  C   UNL     1      -5.986   9.917  -2.876  0.00  0.00    -0.033 A 
ATOM     28  C   UNL     1      -6.887  10.552  -3.824  0.00  0.00    +0.005 A 
ATOM     29  C   UNL     1      -7.635  11.699  -3.475  0.00  0.00    +0.013 A 
BRANCH  18  19
ATOM     19  C   UNL     1      -5.196   8.684  -3.354  0.00  0.00    +0.119 C 
BRANCH  19  20
ATOM     20  N   UNL     1      -5.069   7.543  -2.400  0.00  0.00    -0.302 NA
ATOM     21  C   UNL     1      -3.900   7.732  -1.429  0.00  0.00    +0.066 C 
ATOM     22  C   UNL     1      -3.795   6.540  -0.424  0.00  0.00    -0.064 C 
ATOM     23  N   UNL     1      -3.645   5.232  -1.203  0.00  0.00    +0.379 N 
ATOM     24  C   UNL     1      -3.488   4.115  -0.260  0.00  0.00    -0.096 C 
ATOM     25  H   UNL     1      -2.709   5.302  -1.804  0.00  0.00    -0.082 HD
ATOM     26  C   UNL     1      -4.802   5.036  -2.172  0.00  0.00    -0.064 C 
ATOM     27  C   UNL     1      -4.916   6.241  -3.148  0.00  0.00    +0.066 C 
ENDBRANCH  19  20
ENDBRANCH  18  19
ENDBRANCH  14  15
ENDBRANCH  12  13
TORSDOF 6
ENDMDL
MODEL 5
REMARK VINA RESULT:      -7.7      5.859      7.974
REMARK  Name = C:\Users\Docking\Desktop\test protocol\1iep_ligandH.pdb
REMARK  8 active torsions:
REMARK  status: ('A' for Active; 'I' for Inactive)
REMARK    1  A    between atoms: _5  and  _11
REMARK    2  A    between atoms: _19  and  _21
REMARK    3  A    between atoms: _22  and  _66
REMARK    4  A    between atoms: _27  and  _30
REMARK    5  A    between atoms: _32  and  _33
REMARK    6  A    between atoms: _38  and  _43
REMARK    7  A    between atoms: _43  and  _46
REMARK    8  A    between atoms: _53  and  _55
REMARK                            x       y       z     vdW  Elec       q    Type
REMARK                         _______ _______ _______ _____ _____    ______ ____
ROOT
ATOM     10  C   UNL     1     -17.091  20.428  -8.274  0.00  0.00    +0.038 A 
ATOM     11  C   UNL     1     -15.870  20.137  -7.613  0.00  0.00    +0.047 A 
ATOM     12  C   UNL     1     -14.599  20.609  -8.140  0.00  0.00    +0.035 A 
ATOM     32  C   UNL     1     -14.608  21.377  -9.341  0.00  0.00    +0.024 A 
ATOM     33  C   UNL     1     -15.840  21.681 -10.026  0.00  0.00    +0.007 A 
ATOM     34  C   UNL     1     -17.097  21.216  -9.512  0.00  0.00    -0.029 A 
ATOM     35  C   UNL     1     -18.386  21.566 -10.291  0.00  0.00    +0.045 C 
ENDROOT
BRANCH  10   9
ATOM      4  C   UNL     1     -20.456  17.045  -7.755  0.00  0.00    +0.077 A 
ATOM      5  C   UNL     1     -19.799  16.166  -8.679  0.00  0.00    +0.048 A 
ATOM      6  C   UNL     1     -18.601  16.625  -9.272  0.00  0.00    +0.116 A 
ATOM      7  N   UNL     1     -18.106  17.872  -8.956  0.00  0.00    -0.223 NA
ATOM      8  C   UNL     1     -18.766  18.696  -8.062  0.00  0.00    +0.220 A 
ATOM      9  N   UNL     1     -18.282  19.950  -7.723  0.00  0.00    -0.283 N 
ATOM     36  H   UNL     1     -18.802  20.530  -7.065  0.00  0.00    +0.155 HD
ATOM     37  N   UNL     1     -19.912  18.281  -7.484  0.00  0.00    -0.214 NA
BRANCH   4   3
ATOM      1  C   UNL     1     -24.167  16.055  -7.013  0.00  0.00    +0.020 A 
ATOM      2  C   UNL     1     -22.965  16.381  -7.746  0.00  0.00    +0.013 A 
ATOM      3  C   UNL     1     -21.728  16.701  -7.045  0.00  0.00    +0.019 A 
ATOM     38  C   UNL     1     -21.741  16.683  -5.590  0.00  0.00    +0.120 A 
ATOM     39  N   UNL     1     -22.913  16.367  -4.911  0.00  0.00    -0.263 NA
ATOM     40  C   UNL     1     -24.110  16.058  -5.575  0.00  0.00    +0.111 A 
ENDBRANCH   4   3
ENDBRANCH  10   9
BRANCH  12  13
ATOM     13  N   UNL     1     -13.326  20.338  -7.518  0.00  0.00    -0.281 N 
ATOM     14  C   UNL     1     -12.854  20.811  -6.304  0.00  0.00    +0.248 C 
ATOM     30  O   UNL     1     -13.373  21.714  -5.665  0.00  0.00    -0.270 OA
ATOM     31  H   UNL     1     -12.697  19.724  -8.035  0.00  0.00    +0.155 HD
BRANCH  14  15
ATOM     15  C   UNL     1     -11.620  20.201  -5.723  0.00  0.00    +0.037 A 
ATOM     16  C   UNL     1     -10.321  20.872  -5.823  0.00  0.00    +0.013 A 
ATOM     17  C   UNL     1      -9.143  20.254  -5.269  0.00  0.00    +0.005 A 
ATOM     18  C   UNL     1      -9.259  18.957  -4.607  0.00  0.00    -0.033 A 
ATOM     28  C   UNL     1     -10.560  18.316  -4.517  0.00  0.00    +0.005 A 
ATOM     29  C   UNL     1     -11.717  18.918  -5.060  0.00  0.00    +0.013 A 
BRANCH  18  19
ATOM     19  C   UNL     1      -8.051  18.214  -4.006  0.00  0.00    +0.119 C 
BRANCH  19  20
ATOM     20  N   UNL     1      -7.620  18.610  -2.632  0.00  0.00    -0.302 NA
ATOM     21  C   UNL     1      -6.467  19.617  -2.660  0.00  0.00    +0.066 C 
ATOM     22  C   UNL     1      -6.043  20.038  -1.215  0.00  0.00    -0.064 C 
ATOM     23  N   UNL     1      -5.654  18.792  -0.417  0.00  0.00    +0.379 N 
ATOM     24  C   UNL     1      -5.200  19.189   0.923  0.00  0.00    -0.096 C 
ATOM     25  H   UNL     1      -4.793  18.313  -0.938  0.00  0.00    -0.082 HD
ATOM     26  C   UNL     1      -6.794  17.783  -0.387  0.00  0.00    -0.064 C 
ATOM     27  C   UNL     1      -7.227  17.395  -1.828  0.00  0.00    +0.066 C 
ENDBRANCH  19  20
ENDBRANCH  18  19
ENDBRANCH  14  15
ENDBRANCH  12  13
TORSDOF 6
ENDMDL
