MODEL 1
REMARK VINA RESULT:      -8.3      0.000      0.000
REMARK  Name = C:\Users\Docking\Desktop\test protocol\1iep_ligandH.pdb
REMARK  8 active torsions:
REMARK  status: ('A' for Active; 'I' for Inactive)
REMARK    1  A    between atoms: _5  and  _11
REMARK    2  A    between atoms: _19  and  _21
REMARK    3  A    between atoms: _22  and  _66
REMARK    4  A    between atoms: _27  and  _30
REMARK    5  A    between atoms: _32  and  _33
REMARK    6  A    between atoms: _38  and  _43
REMARK    7  A    between atoms: _43  and  _46
REMARK    8  A    between atoms: _53  and  _55
REMARK                            x       y       z     vdW  Elec       q    Type
REMARK                         _______ _______ _______ _____ _____    ______ ____
ROOT
ATOM     10  C   UNL     1      -9.448  17.503  -3.929  0.00  0.00    +0.038 A 
ATOM     11  C   UNL     1     -10.707  17.683  -4.558  0.00  0.00    +0.047 A 
ATOM     12  C   UNL     1     -11.354  18.986  -4.587  0.00  0.00    +0.035 A 
ATOM     32  C   UNL     1     -10.689  20.084  -3.967  0.00  0.00    +0.024 A 
ATOM     33  C   UNL     1      -9.410  19.919  -3.323  0.00  0.00    +0.007 A 
ATOM     34  C   UNL     1      -8.768  18.636  -3.289  0.00  0.00    -0.029 A 
ATOM     35  C   UNL     1      -7.400  18.515  -2.578  0.00  0.00    +0.045 C 
ENDROOT
BRANCH  10   9
ATOM      4  C   UNL     1      -8.327  13.361  -1.778  0.00  0.00    +0.077 A 
ATOM      5  C   UNL     1      -8.915  13.778  -0.538  0.00  0.00    +0.048 A 
ATOM      6  C   UNL     1      -9.489  15.069  -0.493  0.00  0.00    +0.116 A 
ATOM      7  N   UNL     1      -9.471  15.873  -1.611  0.00  0.00    -0.223 NA
ATOM      8  C   UNL     1      -8.894  15.441  -2.792  0.00  0.00    +0.220 A 
ATOM      9  N   UNL     1      -8.872  16.231  -3.931  0.00  0.00    -0.283 N 
ATOM     36  H   UNL     1      -8.431  15.878  -4.780  0.00  0.00    +0.155 HD
ATOM     37  N   UNL     1      -8.338  14.214  -2.860  0.00  0.00    -0.214 NA
BRANCH   4   3
ATOM      1  C   UNL     1      -6.203  10.119  -1.250  0.00  0.00    +0.020 A 
ATOM      2  C   UNL     1      -6.798  11.412  -1.002  0.00  0.00    +0.013 A 
ATOM      3  C   UNL     1      -7.684  12.025  -1.984  0.00  0.00    +0.019 A 
ATOM     38  C   UNL     1      -7.950  11.297  -3.215  0.00  0.00    +0.120 A 
ATOM     39  N   UNL     1      -7.362  10.054  -3.427  0.00  0.00    -0.263 NA
ATOM     40  C   UNL     1      -6.507   9.455  -2.490  0.00  0.00    +0.111 A 
ENDBRANCH   4   3
ENDBRANCH  10   9
BRANCH  12  13
ATOM     13  N   UNL     1     -12.635  19.227  -5.203  0.00  0.00    -0.281 N 
ATOM     14  C   UNL     1     -12.904  19.956  -6.350  0.00  0.00    +0.248 C 
ATOM     30  O   UNL     1     -12.102  20.693  -6.905  0.00  0.00    -0.270 OA
ATOM     31  H   UNL     1     -13.441  18.811  -4.737  0.00  0.00    +0.155 HD
BRANCH  14  15
ATOM     15  C   UNL     1     -14.265  19.863  -6.961  0.00  0.00    +0.037 A 
ATOM     16  C   UNL     1     -15.453  19.624  -6.138  0.00  0.00    +0.013 A 
ATOM     17  C   UNL     1     -16.752  19.523  -6.755  0.00  0.00    +0.005 A 
ATOM     18  C   UNL     1     -16.869  19.662  -8.204  0.00  0.00    -0.033 A 
ATOM     28  C   UNL     1     -15.675  19.903  -8.997  0.00  0.00    +0.005 A 
ATOM     29  C   UNL     1     -14.400  20.003  -8.396  0.00  0.00    +0.013 A 
BRANCH  18  19
ATOM     19  C   UNL     1     -18.212  19.546  -8.950  0.00  0.00    +0.119 C 
BRANCH  19  20
ATOM     20  N   UNL     1     -18.859  20.817  -9.393  0.00  0.00    -0.302 NA
ATOM     21  C   UNL     1     -20.104  21.147  -8.564  0.00  0.00    +0.066 C 
ATOM     22  C   UNL     1     -20.755  22.491  -9.026  0.00  0.00    -0.064 C 
ATOM     23  N   UNL     1     -21.103  22.401 -10.513  0.00  0.00    +0.379 N 
ATOM     24  C   UNL     1     -21.769  23.641 -10.937  0.00  0.00    -0.096 C 
ATOM     25  H   UNL     1     -21.831  21.566 -10.640  0.00  0.00    -0.082 HD
ATOM     26  C   UNL     1     -19.872  22.070 -11.345  0.00  0.00    -0.064 C 
ATOM     27  C   UNL     1     -19.215  20.748 -10.858  0.00  0.00    +0.066 C 
ENDBRANCH  19  20
ENDBRANCH  18  19
ENDBRANCH  14  15
ENDBRANCH  12  13
TORSDOF 6
ENDMDL
MODEL 2
REMARK VINA RESULT:      -8.1      4.653     12.407
REMARK  Name = C:\Users\Docking\Desktop\test protocol\1iep_ligandH.pdb
REMARK  8 active torsions:
REMARK  status: ('A' for Active; 'I' for Inactive)
REMARK    1  A    between atoms: _5  and  _11
REMARK    2  A    between atoms: _19  and  _21
REMARK    3  A    between atoms: _22  and  _66
REMARK    4  A    between atoms: _27  and  _30
REMARK    5  A    between atoms: _32  and  _33
REMARK    6  A    between atoms: _38  and  _43
REMARK    7  A    between atoms: _43  and  _46
REMARK    8  A    between atoms: _53  and  _55
REMARK                            x       y       z     vdW  Elec       q    Type
REMARK                         _______ _______ _______ _____ _____    ______ ____
ROOT
ATOM     10  C   UNL     1     -17.809  18.412  -4.209  0.00  0.00    +0.038 A 
ATOM     11  C   UNL     1     -16.428  18.112  -4.326  0.00  0.00    +0.047 A 
ATOM     12  C   UNL     1     -15.412  19.087  -3.960  0.00  0.00    +0.035 A 
ATOM     32  C   UNL     1     -15.840  20.358  -3.477  0.00  0.00    +0.024 A 
ATOM     33  C   UNL     1     -17.240  20.680  -3.353  0.00  0.00    +0.007 A 
ATOM     34  C   UNL     1     -18.246  19.723  -3.714  0.00  0.00    -0.029 A 
ATOM     35  C   UNL     1     -19.732  20.125  -3.567  0.00  0.00    +0.045 C 
ENDROOT
BRANCH  10   9
ATOM      4  C   UNL     1     -20.610  16.235  -7.443  0.00  0.00    +0.077 A 
ATOM      5  C   UNL     1     -20.203  17.131  -8.486  0.00  0.00    +0.048 A 
ATOM      6  C   UNL     1     -19.276  18.143  -8.148  0.00  0.00    +0.116 A 
ATOM      7  N   UNL     1     -18.799  18.241  -6.859  0.00  0.00    -0.223 NA
ATOM      8  C   UNL     1     -19.214  17.362  -5.876  0.00  0.00    +0.220 A 
ATOM      9  N   UNL     1     -18.741  17.438  -4.575  0.00  0.00    -0.283 N 
ATOM     36  H   UNL     1     -19.077  16.775  -3.877  0.00  0.00    +0.155 HD
ATOM     37  N   UNL     1     -20.099  16.388  -6.173  0.00  0.00    -0.214 NA
BRANCH   4   3
ATOM      1  C   UNL     1     -22.641  13.298  -9.039  0.00  0.00    +0.020 A 
ATOM      2  C   UNL     1     -21.687  14.374  -8.896  0.00  0.00    +0.013 A 
ATOM      3  C   UNL     1     -21.580  15.113  -7.644  0.00  0.00    +0.019 A 
ATOM     38  C   UNL     1     -22.459  14.735  -6.548  0.00  0.00    +0.120 A 
ATOM     39  N   UNL     1     -23.369  13.695  -6.715  0.00  0.00    -0.263 NA
ATOM     40  C   UNL     1     -23.482  12.978  -7.915  0.00  0.00    +0.111 A 
ENDBRANCH   4   3
ENDBRANCH  10   9
BRANCH  12  13
ATOM     13  N   UNL     1     -13.995  18.843  -4.065  0.00  0.00    -0.281 N 
ATOM     14  C   UNL     1     -13.144  19.194  -5.100  0.00  0.00    +0.248 C 
ATOM     30  O   UNL     1     -13.515  19.587  -6.197  0.00  0.00    -0.270 OA
ATOM     31  H   UNL     1     -13.567  18.350  -3.281  0.00  0.00    +0.155 HD
BRANCH  14  15
ATOM     15  C   UNL     1     -11.669  19.079  -4.893  0.00  0.00    +0.037 A 
ATOM     16  C   UNL     1     -11.053  17.808  -4.504  0.00  0.00    +0.013 A 
ATOM     17  C   UNL     1      -9.629  17.729  -4.293  0.00  0.00    +0.005 A 
ATOM     18  C   UNL     1      -8.811  18.926  -4.473  0.00  0.00    -0.033 A 
ATOM     28  C   UNL     1      -9.447  20.173  -4.864  0.00  0.00    +0.005 A 
ATOM     29  C   UNL     1     -10.843  20.254  -5.070  0.00  0.00    +0.013 A 
BRANCH  18  19
ATOM     19  C   UNL     1      -7.287  18.939  -4.249  0.00  0.00    +0.119 C 
BRANCH  19  20
ATOM     20  N   UNL     1      -6.774  19.709  -3.077  0.00  0.00    -0.302 NA
ATOM     21  C   UNL     1      -5.267  19.960  -3.170  0.00  0.00    +0.066 C 
ATOM     22  C   UNL     1      -4.751  20.787  -1.947  0.00  0.00    -0.064 C 
ATOM     23  N   UNL     1      -5.099  20.049  -0.653  0.00  0.00    +0.379 N 
ATOM     24  C   UNL     1      -4.565  20.795   0.496  0.00  0.00    -0.096 C 
ATOM     25  H   UNL     1      -4.588  19.059  -0.681  0.00  0.00    -0.082 HD
ATOM     26  C   UNL     1      -6.596  19.793  -0.554  0.00  0.00    -0.064 C 
ATOM     27  C   UNL     1      -7.103  18.996  -1.789  0.00  0.00    +0.066 C 
ENDBRANCH  19  20
ENDBRANCH  18  19
ENDBRANCH  14  15
ENDBRANCH  12  13
TORSDOF 6
ENDMDL
MODEL 3
REMARK VINA RESULT:      -8.0      4.333     13.148
REMARK  Name = C:\Users\Docking\Desktop\test protocol\1iep_ligandH.pdb
REMARK  8 active torsions:
REMARK  status: ('A' for Active; 'I' for Inactive)
REMARK    1  A    between atoms: _5  and  _11
REMARK    2  A    between atoms: _19  and  _21
REMARK    3  A    between atoms: _22  and  _66
REMARK    4  A    between atoms: _27  and  _30
REMARK    5  A    between atoms: _32  and  _33
REMARK    6  A    between atoms: _38  and  _43
REMARK    7  A    between atoms: _43  and  _46
REMARK    8  A    between atoms: _53  and  _55
REMARK                            x       y       z     vdW  Elec       q    Type
REMARK                         _______ _______ _______ _____ _____    ______ ____
ROOT
ATOM     10  C   UNL     1     -19.423  19.099  -8.660  0.00  0.00    +0.038 A 
ATOM     11  C   UNL     1     -18.347  18.878  -7.762  0.00  0.00    +0.047 A 
ATOM     12  C   UNL     1     -17.004  19.345  -8.069  0.00  0.00    +0.035 A 
ATOM     32  C   UNL     1     -16.792  20.036  -9.297  0.00  0.00    +0.024 A 
ATOM     33  C   UNL     1     -17.874  20.269 -10.221  0.00  0.00    +0.007 A 
ATOM     34  C   UNL     1     -19.201  19.808  -9.926  0.00  0.00    -0.029 A 
ATOM     35  C   UNL     1     -20.322  20.080 -10.956  0.00  0.00    +0.045 C 
ENDROOT
BRANCH  10   9
ATOM      4  C   UNL     1     -22.591  15.553  -8.009  0.00  0.00    +0.077 A 
ATOM      5  C   UNL     1     -21.645  14.554  -8.415  0.00  0.00    +0.048 A 
ATOM      6  C   UNL     1     -20.357  14.995  -8.791  0.00  0.00    +0.116 A 
ATOM      7  N   UNL     1     -20.048  16.337  -8.759  0.00  0.00    -0.223 NA
ATOM      8  C   UNL     1     -20.984  17.275  -8.363  0.00  0.00    +0.220 A 
ATOM      9  N   UNL     1     -20.692  18.630  -8.315  0.00  0.00    -0.283 N 
ATOM     36  H   UNL     1     -21.413  19.290  -8.025  0.00  0.00    +0.155 HD
ATOM     37  N   UNL     1     -22.222  16.880  -8.001  0.00  0.00    -0.214 NA
BRANCH   4   3
ATOM      1  C   UNL     1     -25.960  13.686  -7.324  0.00  0.00    +0.020 A 
ATOM      2  C   UNL     1     -24.603  13.933  -7.756  0.00  0.00    +0.013 A 
ATOM      3  C   UNL     1     -23.992  15.244  -7.580  0.00  0.00    +0.019 A 
ATOM     38  C   UNL     1     -24.786  16.292  -6.958  0.00  0.00    +0.120 A 
ATOM     39  N   UNL     1     -26.090  16.026  -6.553  0.00  0.00    -0.263 NA
ATOM     40  C   UNL     1     -26.690  14.769  -6.718  0.00  0.00    +0.111 A 
ENDBRANCH   4   3
ENDBRANCH  10   9
BRANCH  12  13
ATOM     13  N   UNL     1     -15.871  19.142  -7.200  0.00  0.00    -0.281 N 
ATOM     14  C   UNL     1     -15.336  20.026  -6.278  0.00  0.00    +0.248 C 
ATOM     30  O   UNL     1     -15.622  21.213  -6.211  0.00  0.00    -0.270 OA
ATOM     31  H   UNL     1     -15.406  18.237  -7.274  0.00  0.00    +0.155 HD
BRANCH  14  15
ATOM     15  C   UNL     1     -14.326  19.524  -5.297  0.00  0.00    +0.037 A 
ATOM     16  C   UNL     1     -12.925  19.333  -5.679  0.00  0.00    +0.013 A 
ATOM     17  C   UNL     1     -11.975  18.830  -4.718  0.00  0.00    +0.005 A 
ATOM     18  C   UNL     1     -12.424  18.517  -3.364  0.00  0.00    -0.033 A 
ATOM     28  C   UNL     1     -13.819  18.721  -3.010  0.00  0.00    +0.005 A 
ATOM     29  C   UNL     1     -14.753  19.212  -3.949  0.00  0.00    +0.013 A 
BRANCH  18  19
ATOM     19  C   UNL     1     -11.485  17.957  -2.280  0.00  0.00    +0.119 C 
BRANCH  19  20
ATOM     20  N   UNL     1     -10.023  17.942  -2.583  0.00  0.00    -0.302 NA
ATOM     21  C   UNL     1      -9.342  16.669  -2.070  0.00  0.00    +0.066 C 
ATOM     22  C   UNL     1      -7.818  16.660  -2.416  0.00  0.00    -0.064 C 
ATOM     23  N   UNL     1      -7.155  17.905  -1.823  0.00  0.00    +0.379 N 
ATOM     24  C   UNL     1      -5.711  17.870  -2.097  0.00  0.00    -0.096 C 
ATOM     25  H   UNL     1      -7.291  17.866  -0.717  0.00  0.00    -0.082 HD
ATOM     26  C   UNL     1      -7.828  19.175  -2.326  0.00  0.00    -0.064 C 
ATOM     27  C   UNL     1      -9.348  19.160  -2.003  0.00  0.00    +0.066 C 
ENDBRANCH  19  20
ENDBRANCH  18  19
ENDBRANCH  14  15
ENDBRANCH  12  13
TORSDOF 6
ENDMDL
MODEL 4
REMARK VINA RESULT:      -7.9      1.466      1.854
REMARK  Name = C:\Users\Docking\Desktop\test protocol\1iep_ligandH.pdb
REMARK  8 active torsions:
REMARK  status: ('A' for Active; 'I' for Inactive)
REMARK    1  A    between atoms: _5  and  _11
REMARK    2  A    between atoms: _19  and  _21
REMARK    3  A    between atoms: _22  and  _66
REMARK    4  A    between atoms: _27  and  _30
REMARK    5  A    between atoms: _32  and  _33
REMARK    6  A    between atoms: _38  and  _43
REMARK    7  A    between atoms: _43  and  _46
REMARK    8  A    between atoms: _53  and  _55
REMARK                            x       y       z     vdW  Elec       q    Type
REMARK                         _______ _______ _______ _____ _____    ______ ____
ROOT
ATOM     10  C   UNL     1      -9.515  17.187  -3.925  0.00  0.00    +0.038 A 
ATOM     11  C   UNL     1     -10.874  17.239  -4.328  0.00  0.00    +0.047 A 
ATOM     12  C   UNL     1     -11.607  18.495  -4.341  0.00  0.00    +0.035 A 
ATOM     32  C   UNL     1     -10.924  19.680  -3.940  0.00  0.00    +0.024 A 
ATOM     33  C   UNL     1      -9.543  19.645  -3.527  0.00  0.00    +0.007 A 
ATOM     34  C   UNL     1      -8.816  18.408  -3.509  0.00  0.00    -0.029 A 
ATOM     35  C   UNL     1      -7.339  18.429  -3.051  0.00  0.00    +0.045 C 
ENDROOT
BRANCH  10   9
ATOM      4  C   UNL     1      -8.095  13.137  -1.776  0.00  0.00    +0.077 A 
ATOM      5  C   UNL     1      -8.686  13.522  -0.527  0.00  0.00    +0.048 A 
ATOM      6  C   UNL     1      -9.340  14.774  -0.478  0.00  0.00    +0.116 A 
ATOM      7  N   UNL     1      -9.393  15.572  -1.600  0.00  0.00    -0.223 NA
ATOM      8  C   UNL     1      -8.811  15.170  -2.789  0.00  0.00    +0.220 A 
ATOM      9  N   UNL     1      -8.860  15.953  -3.932  0.00  0.00    -0.283 N 
ATOM     36  H   UNL     1      -8.412  15.625  -4.787  0.00  0.00    +0.155 HD
ATOM     37  N   UNL     1      -8.180  13.980  -2.861  0.00  0.00    -0.214 NA
BRANCH   4   3
ATOM      1  C   UNL     1      -6.596   9.925  -3.431  0.00  0.00    +0.020 A 
ATOM      2  C   UNL     1      -7.308  11.173  -3.281  0.00  0.00    +0.013 A 
ATOM      3  C   UNL     1      -7.372  11.843  -1.988  0.00  0.00    +0.019 A 
ATOM     38  C   UNL     1      -6.699  11.218  -0.858  0.00  0.00    +0.120 A 
ATOM     39  N   UNL     1      -6.023  10.015  -1.033  0.00  0.00    -0.263 NA
ATOM     40  C   UNL     1      -5.956   9.361  -2.272  0.00  0.00    +0.111 A 
ENDBRANCH   4   3
ENDBRANCH  10   9
BRANCH  12  13
ATOM     13  N   UNL     1     -12.990  18.608  -4.733  0.00  0.00    -0.281 N 
ATOM     14  C   UNL     1     -14.065  19.011  -3.957  0.00  0.00    +0.248 C 
ATOM     30  O   UNL     1     -14.033  19.131  -2.741  0.00  0.00    -0.270 OA
ATOM     31  H   UNL     1     -13.203  18.362  -5.700  0.00  0.00    +0.155 HD
BRANCH  14  15
ATOM     15  C   UNL     1     -15.367  19.309  -4.626  0.00  0.00    +0.037 A 
ATOM     16  C   UNL     1     -16.639  19.169  -3.912  0.00  0.00    +0.013 A 
ATOM     17  C   UNL     1     -17.882  19.447  -4.586  0.00  0.00    +0.005 A 
ATOM     18  C   UNL     1     -17.859  19.870  -5.984  0.00  0.00    -0.033 A 
ATOM     28  C   UNL     1     -16.584  20.006  -6.668  0.00  0.00    +0.005 A 
ATOM     29  C   UNL     1     -15.363  19.733  -6.010  0.00  0.00    +0.013 A 
BRANCH  18  19
ATOM     19  C   UNL     1     -19.138  20.167  -6.789  0.00  0.00    +0.119 C 
BRANCH  19  20
ATOM     20  N   UNL     1     -18.967  20.669  -8.185  0.00  0.00    -0.302 NA
ATOM     21  C   UNL     1     -19.121  22.190  -8.271  0.00  0.00    +0.066 C 
ATOM     22  C   UNL     1     -18.916  22.701  -9.735  0.00  0.00    -0.064 C 
ATOM     23  N   UNL     1     -19.914  22.002 -10.660  0.00  0.00    +0.379 N 
ATOM     24  C   UNL     1     -19.763  22.522 -12.027  0.00  0.00    -0.096 C 
ATOM     25  H   UNL     1     -20.939  22.262 -10.310  0.00  0.00    -0.082 HD
ATOM     26  C   UNL     1     -19.769  20.489 -10.578  0.00  0.00    -0.064 C 
ATOM     27  C   UNL     1     -19.945  19.995  -9.115  0.00  0.00    +0.066 C 
ENDBRANCH  19  20
ENDBRANCH  18  19
ENDBRANCH  14  15
ENDBRANCH  12  13
TORSDOF 6
ENDMDL
MODEL 5
REMARK VINA RESULT:      -7.9      2.127      3.072
REMARK  Name = C:\Users\Docking\Desktop\test protocol\1iep_ligandH.pdb
REMARK  8 active torsions:
REMARK  status: ('A' for Active; 'I' for Inactive)
REMARK    1  A    between atoms: _5  and  _11
REMARK    2  A    between atoms: _19  and  _21
REMARK    3  A    between atoms: _22  and  _66
REMARK    4  A    between atoms: _27  and  _30
REMARK    5  A    between atoms: _32  and  _33
REMARK    6  A    between atoms: _38  and  _43
REMARK    7  A    between atoms: _43  and  _46
REMARK    8  A    between atoms: _53  and  _55
REMARK                            x       y       z     vdW  Elec       q    Type
REMARK                         _______ _______ _______ _____ _____    ______ ____
ROOT
ATOM     10  C   UNL     1      -9.404  17.440  -3.936  0.00  0.00    +0.038 A 
ATOM     11  C   UNL     1     -10.729  17.592  -4.419  0.00  0.00    +0.047 A 
ATOM     12  C   UNL     1     -11.383  18.891  -4.424  0.00  0.00    +0.035 A 
ATOM     32  C   UNL     1     -10.658  20.015  -3.931  0.00  0.00    +0.024 A 
ATOM     33  C   UNL     1      -9.311  19.878  -3.435  0.00  0.00    +0.007 A 
ATOM     34  C   UNL     1      -8.661  18.599  -3.426  0.00  0.00    -0.029 A 
ATOM     35  C   UNL     1      -7.218  18.510  -2.876  0.00  0.00    +0.045 C 
ENDROOT
BRANCH  10   9
ATOM      4  C   UNL     1      -8.199  13.306  -1.815  0.00  0.00    +0.077 A 
ATOM      5  C   UNL     1      -8.747  13.723  -0.557  0.00  0.00    +0.048 A 
ATOM      6  C   UNL     1      -9.323  15.012  -0.495  0.00  0.00    +0.116 A 
ATOM      7  N   UNL     1      -9.345  15.814  -1.615  0.00  0.00    -0.223 NA
ATOM      8  C   UNL     1      -8.806  15.382  -2.813  0.00  0.00    +0.220 A 
ATOM      9  N   UNL     1      -8.824  16.169  -3.954  0.00  0.00    -0.283 N 
ATOM     36  H   UNL     1      -8.410  15.817  -4.816  0.00  0.00    +0.155 HD
ATOM     37  N   UNL     1      -8.248  14.156  -2.897  0.00  0.00    -0.214 NA
BRANCH   4   3
ATOM      1  C   UNL     1      -6.974   9.986  -3.482  0.00  0.00    +0.020 A 
ATOM      2  C   UNL     1      -7.610  11.273  -3.317  0.00  0.00    +0.013 A 
ATOM      3  C   UNL     1      -7.558  11.971  -2.039  0.00  0.00    +0.019 A 
ATOM     38  C   UNL     1      -6.849  11.336  -0.939  0.00  0.00    +0.120 A 
ATOM     39  N   UNL     1      -6.248  10.095  -1.126  0.00  0.00    -0.263 NA
ATOM     40  C   UNL     1      -6.292   9.413  -2.351  0.00  0.00    +0.111 A 
ENDBRANCH   4   3
ENDBRANCH  10   9
BRANCH  12  13
ATOM     13  N   UNL     1     -12.729  19.105  -4.895  0.00  0.00    -0.281 N 
ATOM     14  C   UNL     1     -13.133  19.712  -6.072  0.00  0.00    +0.248 C 
ATOM     30  O   UNL     1     -12.398  20.358  -6.804  0.00  0.00    -0.270 OA
ATOM     31  H   UNL     1     -13.475  18.768  -4.286  0.00  0.00    +0.155 HD
BRANCH  14  15
ATOM     15  C   UNL     1     -14.563  19.598  -6.490  0.00  0.00    +0.037 A 
ATOM     16  C   UNL     1     -14.961  19.762  -7.891  0.00  0.00    +0.013 A 
ATOM     17  C   UNL     1     -16.350  19.663  -8.265  0.00  0.00    +0.005 A 
ATOM     18  C   UNL     1     -17.352  19.398  -7.235  0.00  0.00    -0.033 A 
ATOM     28  C   UNL     1     -16.929  19.234  -5.854  0.00  0.00    +0.005 A 
ATOM     29  C   UNL     1     -15.568  19.331  -5.484  0.00  0.00    +0.013 A 
BRANCH  18  19
ATOM     19  C   UNL     1     -18.858  19.297  -7.539  0.00  0.00    +0.119 C 
BRANCH  19  20
ATOM     20  N   UNL     1     -19.469  17.935  -7.527  0.00  0.00    -0.302 NA
ATOM     21  C   UNL     1     -20.054  17.555  -8.890  0.00  0.00    +0.066 C 
ATOM     22  C   UNL     1     -20.669  16.118  -8.866  0.00  0.00    -0.064 C 
ATOM     23  N   UNL     1     -21.740  16.043  -7.777  0.00  0.00    +0.379 N 
ATOM     24  C   UNL     1     -22.361  14.710  -7.790  0.00  0.00    -0.096 C 
ATOM     25  H   UNL     1     -22.531  16.787  -8.029  0.00  0.00    -0.082 HD
ATOM     26  C   UNL     1     -21.167  16.421  -6.418  0.00  0.00    -0.064 C 
ATOM     27  C   UNL     1     -20.533  17.839  -6.461  0.00  0.00    +0.066 C 
ENDBRANCH  19  20
ENDBRANCH  18  19
ENDBRANCH  14  15
ENDBRANCH  12  13
TORSDOF 6
ENDMDL
