MODEL 1
REMARK VINA RESULT:     -10.1      0.000      0.000
REMARK  Name = C:\Users\Docking\Desktop\test protocol\1iep_ligandH.pdb
REMARK  8 active torsions:
REMARK  status: ('A' for Active; 'I' for Inactive)
REMARK    1  A    between atoms: _5  and  _11
REMARK    2  A    between atoms: _19  and  _21
REMARK    3  A    between atoms: _22  and  _66
REMARK    4  A    between atoms: _27  and  _30
REMARK    5  A    between atoms: _32  and  _33
REMARK    6  A    between atoms: _38  and  _43
REMARK    7  A    between atoms: _43  and  _46
REMARK    8  A    between atoms: _53  and  _55
REMARK                            x       y       z     vdW  Elec       q    Type
REMARK                         _______ _______ _______ _____ _____    ______ ____
ROOT
ATOM     10  C   UNL     1       9.068  25.554  19.846  0.00  0.00    +0.038 A 
ATOM     11  C   UNL     1       8.315  26.747  19.694  0.00  0.00    +0.047 A 
ATOM     12  C   UNL     1       8.862  28.037  20.085  0.00  0.00    +0.035 A 
ATOM     32  C   UNL     1      10.180  28.075  20.626  0.00  0.00    +0.024 A 
ATOM     33  C   UNL     1      10.958  26.873  20.789  0.00  0.00    +0.007 A 
ATOM     34  C   UNL     1      10.423  25.597  20.407  0.00  0.00    -0.029 A 
ATOM     35  C   UNL     1      11.300  24.340  20.610  0.00  0.00    +0.045 C 
ENDROOT
BRANCH  10   9
ATOM      4  C   UNL     1       5.359  22.519  19.575  0.00  0.00    +0.077 A 
ATOM      5  C   UNL     1       4.501  23.410  20.301  0.00  0.00    +0.048 A 
ATOM      6  C   UNL     1       5.054  24.637  20.732  0.00  0.00    +0.116 A 
ATOM      7  N   UNL     1       6.369  24.939  20.453  0.00  0.00    -0.223 NA
ATOM      8  C   UNL     1       7.170  24.056  19.752  0.00  0.00    +0.220 A 
ATOM      9  N   UNL     1       8.493  24.343  19.453  0.00  0.00    -0.283 N 
ATOM     36  H   UNL     1       9.053  23.662  18.941  0.00  0.00    +0.155 HD
ATOM     37  N   UNL     1       6.666  22.878  19.330  0.00  0.00    -0.214 NA
BRANCH   4   3
ATOM      1  C   UNL     1       3.159  19.577  18.233  0.00  0.00    +0.020 A 
ATOM      2  C   UNL     1       3.530  20.879  18.738  0.00  0.00    +0.013 A 
ATOM      3  C   UNL     1       4.920  21.188  19.050  0.00  0.00    +0.019 A 
ATOM     38  C   UNL     1       5.917  20.150  18.838  0.00  0.00    +0.120 A 
ATOM     39  N   UNL     1       5.530  18.905  18.351  0.00  0.00    -0.263 NA
ATOM     40  C   UNL     1       4.195  18.595  18.049  0.00  0.00    +0.111 A 
ENDBRANCH   4   3
ENDBRANCH  10   9
BRANCH  12  13
ATOM     13  N   UNL     1       8.142  29.280  19.962  0.00  0.00    -0.281 N 
ATOM     14  C   UNL     1       7.842  30.193  20.959  0.00  0.00    +0.248 C 
ATOM     30  O   UNL     1       7.964  29.975  22.156  0.00  0.00    -0.270 OA
ATOM     31  H   UNL     1       7.814  29.515  19.025  0.00  0.00    +0.155 HD
BRANCH  14  15
ATOM     15  C   UNL     1       7.318  31.538  20.573  0.00  0.00    +0.037 A 
ATOM     16  C   UNL     1       7.724  32.748  21.294  0.00  0.00    +0.013 A 
ATOM     17  C   UNL     1       7.191  34.031  20.911  0.00  0.00    +0.005 A 
ATOM     18  C   UNL     1       6.245  34.111  19.800  0.00  0.00    -0.033 A 
ATOM     28  C   UNL     1       5.864  32.897  19.099  0.00  0.00    +0.005 A 
ATOM     29  C   UNL     1       6.384  31.637  19.472  0.00  0.00    +0.013 A 
BRANCH  18  19
ATOM     19  C   UNL     1       5.610  35.435  19.337  0.00  0.00    +0.119 C 
BRANCH  19  20
ATOM     20  N   UNL     1       5.111  36.362  20.397  0.00  0.00    -0.302 NA
ATOM     21  C   UNL     1       3.645  36.095  20.750  0.00  0.00    +0.066 C 
ATOM     22  C   UNL     1       3.146  37.059  21.876  0.00  0.00    -0.064 C 
ATOM     23  N   UNL     1       3.341  38.508  21.427  0.00  0.00    +0.379 N 
ATOM     24  C   UNL     1       2.819  39.416  22.459  0.00  0.00    -0.096 C 
ATOM     25  H   UNL     1       2.733  38.660  20.505  0.00  0.00    -0.082 HD
ATOM     26  C   UNL     1       4.795  38.781  21.071  0.00  0.00    -0.064 C 
ATOM     27  C   UNL     1       5.289  37.799  19.972  0.00  0.00    +0.066 C 
ENDBRANCH  19  20
ENDBRANCH  18  19
ENDBRANCH  14  15
ENDBRANCH  12  13
TORSDOF 6
ENDMDL
MODEL 2
REMARK VINA RESULT:     -10.1      2.875      4.017
REMARK  Name = C:\Users\Docking\Desktop\test protocol\1iep_ligandH.pdb
REMARK  8 active torsions:
REMARK  status: ('A' for Active; 'I' for Inactive)
REMARK    1  A    between atoms: _5  and  _11
REMARK    2  A    between atoms: _19  and  _21
REMARK    3  A    between atoms: _22  and  _66
REMARK    4  A    between atoms: _27  and  _30
REMARK    5  A    between atoms: _32  and  _33
REMARK    6  A    between atoms: _38  and  _43
REMARK    7  A    between atoms: _43  and  _46
REMARK    8  A    between atoms: _53  and  _55
REMARK                            x       y       z     vdW  Elec       q    Type
REMARK                         _______ _______ _______ _____ _____    ______ ____
ROOT
ATOM     10  C   UNL     1       9.818  27.492  20.678  0.00  0.00    +0.038 A 
ATOM     11  C   UNL     1       9.244  28.600  20.004  0.00  0.00    +0.047 A 
ATOM     12  C   UNL     1       8.530  29.636  20.734  0.00  0.00    +0.035 A 
ATOM     32  C   UNL     1       8.421  29.513  22.150  0.00  0.00    +0.024 A 
ATOM     33  C   UNL     1       8.998  28.393  22.850  0.00  0.00    +0.007 A 
ATOM     34  C   UNL     1       9.702  27.366  22.136  0.00  0.00    -0.029 A 
ATOM     35  C   UNL     1      10.294  26.184  22.938  0.00  0.00    +0.045 C 
ENDROOT
BRANCH  10   9
ATOM      4  C   UNL     1       9.883  23.652  17.798  0.00  0.00    +0.077 A 
ATOM      5  C   UNL     1       8.452  23.545  17.810  0.00  0.00    +0.048 A 
ATOM      6  C   UNL     1       7.737  24.493  18.576  0.00  0.00    +0.116 A 
ATOM      7  N   UNL     1       8.413  25.472  19.273  0.00  0.00    -0.223 NA
ATOM      8  C   UNL     1       9.793  25.546  19.241  0.00  0.00    +0.220 A 
ATOM      9  N   UNL     1      10.493  26.526  19.928  0.00  0.00    -0.283 N 
ATOM     36  H   UNL     1      11.512  26.542  19.885  0.00  0.00    +0.155 HD
ATOM     37  N   UNL     1      10.499  24.651  18.518  0.00  0.00    -0.214 NA
BRANCH   4   3
ATOM      1  C   UNL     1      12.960  22.150  15.907  0.00  0.00    +0.020 A 
ATOM      2  C   UNL     1      12.137  23.081  16.645  0.00  0.00    +0.013 A 
ATOM      3  C   UNL     1      10.778  22.727  17.034  0.00  0.00    +0.019 A 
ATOM     38  C   UNL     1      10.278  21.413  16.659  0.00  0.00    +0.120 A 
ATOM     39  N   UNL     1      11.093  20.538  15.947  0.00  0.00    -0.263 NA
ATOM     40  C   UNL     1      12.402  20.868  15.566  0.00  0.00    +0.111 A 
ENDBRANCH   4   3
ENDBRANCH  10   9
BRANCH  12  13
ATOM     13  N   UNL     1       7.919  30.780  20.103  0.00  0.00    -0.281 N 
ATOM     14  C   UNL     1       7.041  31.693  20.663  0.00  0.00    +0.248 C 
ATOM     30  O   UNL     1       6.478  31.542  21.737  0.00  0.00    -0.270 OA
ATOM     31  H   UNL     1       8.164  30.935  19.125  0.00  0.00    +0.155 HD
BRANCH  14  15
ATOM     15  C   UNL     1       6.733  32.951  19.916  0.00  0.00    +0.037 A 
ATOM     16  C   UNL     1       7.800  33.773  19.339  0.00  0.00    +0.013 A 
ATOM     17  C   UNL     1       7.476  34.989  18.637  0.00  0.00    +0.005 A 
ATOM     18  C   UNL     1       6.077  35.391  18.508  0.00  0.00    -0.033 A 
ATOM     28  C   UNL     1       5.038  34.554  19.085  0.00  0.00    +0.005 A 
ATOM     29  C   UNL     1       5.352  33.361  19.774  0.00  0.00    +0.013 A 
BRANCH  18  19
ATOM     19  C   UNL     1       5.641  36.684  17.794  0.00  0.00    +0.119 C 
BRANCH  19  20
ATOM     20  N   UNL     1       5.391  37.885  18.647  0.00  0.00    -0.302 NA
ATOM     21  C   UNL     1       5.144  37.508  20.110  0.00  0.00    +0.066 C 
ATOM     22  C   UNL     1       4.906  38.777  20.992  0.00  0.00    -0.064 C 
ATOM     23  N   UNL     1       3.725  39.571  20.431  0.00  0.00    +0.379 N 
ATOM     24  C   UNL     1       3.462  40.734  21.291  0.00  0.00    -0.096 C 
ATOM     25  H   UNL     1       2.827  38.912  20.468  0.00  0.00    -0.082 HD
ATOM     26  C   UNL     1       3.961  39.947  18.975  0.00  0.00    -0.064 C 
ATOM     27  C   UNL     1       4.226  38.681  18.113  0.00  0.00    +0.066 C 
ENDBRANCH  19  20
ENDBRANCH  18  19
ENDBRANCH  14  15
ENDBRANCH  12  13
TORSDOF 6
ENDMDL
MODEL 3
REMARK VINA RESULT:      -9.8      6.410     12.908
REMARK  Name = C:\Users\Docking\Desktop\test protocol\1iep_ligandH.pdb
REMARK  8 active torsions:
REMARK  status: ('A' for Active; 'I' for Inactive)
REMARK    1  A    between atoms: _5  and  _11
REMARK    2  A    between atoms: _19  and  _21
REMARK    3  A    between atoms: _22  and  _66
REMARK    4  A    between atoms: _27  and  _30
REMARK    5  A    between atoms: _32  and  _33
REMARK    6  A    between atoms: _38  and  _43
REMARK    7  A    between atoms: _43  and  _46
REMARK    8  A    between atoms: _53  and  _55
REMARK                            x       y       z     vdW  Elec       q    Type
REMARK                         _______ _______ _______ _____ _____    ______ ____
ROOT
ATOM     10  C   UNL     1       9.267  25.841  18.728  0.00  0.00    +0.038 A 
ATOM     11  C   UNL     1      10.613  25.646  18.325  0.00  0.00    +0.047 A 
ATOM     12  C   UNL     1      11.200  24.316  18.278  0.00  0.00    +0.035 A 
ATOM     32  C   UNL     1      10.386  23.205  18.645  0.00  0.00    +0.024 A 
ATOM     33  C   UNL     1       9.016  23.385  19.058  0.00  0.00    +0.007 A 
ATOM     34  C   UNL     1       8.433  24.695  19.109  0.00  0.00    -0.029 A 
ATOM     35  C   UNL     1       6.961  24.828  19.566  0.00  0.00    +0.045 C 
ENDROOT
BRANCH  10   9
ATOM      4  C   UNL     1       8.085  29.877  21.040  0.00  0.00    +0.077 A 
ATOM      5  C   UNL     1       8.498  29.343  22.306  0.00  0.00    +0.048 A 
ATOM      6  C   UNL     1       9.002  28.023  22.320  0.00  0.00    +0.116 A 
ATOM      7  N   UNL     1       9.083  27.301  21.149  0.00  0.00    -0.223 NA
ATOM      8  C   UNL     1       8.675  27.845  19.945  0.00  0.00    +0.220 A 
ATOM      9  N   UNL     1       8.755  27.140  18.755  0.00  0.00    -0.283 N 
ATOM     36  H   UNL     1       8.436  27.574  17.889  0.00  0.00    +0.155 HD
ATOM     37  N   UNL     1       8.188  29.103  19.906  0.00  0.00    -0.214 NA
BRANCH   4   3
ATOM      1  C   UNL     1       5.939  33.122  21.450  0.00  0.00    +0.020 A 
ATOM      2  C   UNL     1       6.433  31.781  21.662  0.00  0.00    +0.013 A 
ATOM      3  C   UNL     1       7.534  31.258  20.862  0.00  0.00    +0.019 A 
ATOM     38  C   UNL     1       8.117  32.124  19.849  0.00  0.00    +0.120 A 
ATOM     39  N   UNL     1       7.619  33.411  19.666  0.00  0.00    -0.263 NA
ATOM     40  C   UNL     1       6.559  33.924  20.429  0.00  0.00    +0.111 A 
ENDBRANCH   4   3
ENDBRANCH  10   9
BRANCH  12  13
ATOM     13  N   UNL     1      12.563  24.058  17.884  0.00  0.00    -0.281 N 
ATOM     14  C   UNL     1      13.013  23.407  16.747  0.00  0.00    +0.248 C 
ATOM     30  O   UNL     1      12.301  22.756  15.997  0.00  0.00    -0.270 OA
ATOM     31  H   UNL     1      13.284  24.397  18.522  0.00  0.00    +0.155 HD
BRANCH  14  15
ATOM     15  C   UNL     1      14.465  23.477  16.402  0.00  0.00    +0.037 A 
ATOM     16  C   UNL     1      15.446  24.016  17.348  0.00  0.00    +0.013 A 
ATOM     17  C   UNL     1      16.839  24.088  16.982  0.00  0.00    +0.005 A 
ATOM     18  C   UNL     1      17.259  23.619  15.664  0.00  0.00    -0.033 A 
ATOM     28  C   UNL     1      16.265  23.084  14.748  0.00  0.00    +0.005 A 
ATOM     29  C   UNL     1      14.899  23.013  15.102  0.00  0.00    +0.013 A 
BRANCH  18  19
ATOM     19  C   UNL     1      18.720  23.677  15.182  0.00  0.00    +0.119 C 
BRANCH  19  20
ATOM     20  N   UNL     1      19.416  24.996  15.269  0.00  0.00    -0.302 NA
ATOM     21  C   UNL     1      18.658  26.097  14.523  0.00  0.00    +0.066 C 
ATOM     22  C   UNL     1      19.388  27.474  14.643  0.00  0.00    -0.064 C 
ATOM     23  N   UNL     1      20.815  27.340  14.107  0.00  0.00    +0.379 N 
ATOM     24  C   UNL     1      21.486  28.647  14.165  0.00  0.00    -0.096 C 
ATOM     25  H   UNL     1      20.746  27.042  13.035  0.00  0.00    -0.082 HD
ATOM     26  C   UNL     1      21.575  26.245  14.842  0.00  0.00    -0.064 C 
ATOM     27  C   UNL     1      20.826  24.887  14.741  0.00  0.00    +0.066 C 
ENDBRANCH  19  20
ENDBRANCH  18  19
ENDBRANCH  14  15
ENDBRANCH  12  13
TORSDOF 6
ENDMDL
MODEL 4
REMARK VINA RESULT:      -9.5      7.562     13.251
REMARK  Name = C:\Users\Docking\Desktop\test protocol\1iep_ligandH.pdb
REMARK  8 active torsions:
REMARK  status: ('A' for Active; 'I' for Inactive)
REMARK    1  A    between atoms: _5  and  _11
REMARK    2  A    between atoms: _19  and  _21
REMARK    3  A    between atoms: _22  and  _66
REMARK    4  A    between atoms: _27  and  _30
REMARK    5  A    between atoms: _32  and  _33
REMARK    6  A    between atoms: _38  and  _43
REMARK    7  A    between atoms: _43  and  _46
REMARK    8  A    between atoms: _53  and  _55
REMARK                            x       y       z     vdW  Elec       q    Type
REMARK                         _______ _______ _______ _____ _____    ______ ____
ROOT
ATOM     10  C   UNL     1      17.077  24.378  18.558  0.00  0.00    +0.038 A 
ATOM     11  C   UNL     1      15.710  24.756  18.521  0.00  0.00    +0.047 A 
ATOM     12  C   UNL     1      14.659  23.815  18.876  0.00  0.00    +0.035 A 
ATOM     32  C   UNL     1      15.036  22.497  19.268  0.00  0.00    +0.024 A 
ATOM     33  C   UNL     1      16.421  22.096  19.310  0.00  0.00    +0.007 A 
ATOM     34  C   UNL     1      17.461  23.019  18.959  0.00  0.00    -0.029 A 
ATOM     35  C   UNL     1      18.928  22.532  19.016  0.00  0.00    +0.045 C 
ENDROOT
BRANCH  10   9
ATOM      4  C   UNL     1      19.777  26.665  15.316  0.00  0.00    +0.077 A 
ATOM      5  C   UNL     1      19.233  25.897  14.234  0.00  0.00    +0.048 A 
ATOM      6  C   UNL     1      18.266  24.918  14.554  0.00  0.00    +0.116 A 
ATOM      7  N   UNL     1      17.879  24.730  15.864  0.00  0.00    -0.223 NA
ATOM      8  C   UNL     1      18.425  25.488  16.884  0.00  0.00    +0.220 A 
ATOM      9  N   UNL     1      18.045  25.321  18.207  0.00  0.00    -0.283 N 
ATOM     36  H   UNL     1      18.476  25.895  18.931  0.00  0.00    +0.155 HD
ATOM     37  N   UNL     1      19.351  26.428  16.604  0.00  0.00    -0.214 NA
BRANCH   4   3
ATOM      1  C   UNL     1      22.014  29.469  13.755  0.00  0.00    +0.020 A 
ATOM      2  C   UNL     1      21.007  28.440  13.875  0.00  0.00    +0.013 A 
ATOM      3  C   UNL     1      20.805  27.739  15.137  0.00  0.00    +0.019 A 
ATOM     38  C   UNL     1      21.644  28.108  16.267  0.00  0.00    +0.120 A 
ATOM     39  N   UNL     1      22.606  29.102  16.122  0.00  0.00    -0.263 NA
ATOM     40  C   UNL     1      22.811  29.782  14.912  0.00  0.00    +0.111 A 
ENDBRANCH   4   3
ENDBRANCH  10   9
BRANCH  12  13
ATOM     13  N   UNL     1      13.255  24.139  18.849  0.00  0.00    -0.281 N 
ATOM     14  C   UNL     1      12.357  23.951  17.811  0.00  0.00    +0.248 C 
ATOM     30  O   UNL     1      12.675  23.670  16.665  0.00  0.00    -0.270 OA
ATOM     31  H   UNL     1      12.876  24.558  19.699  0.00  0.00    +0.155 HD
BRANCH  14  15
ATOM     15  C   UNL     1      10.896  24.113  18.081  0.00  0.00    +0.037 A 
ATOM     16  C   UNL     1      10.297  25.440  18.250  0.00  0.00    +0.013 A 
ATOM     17  C   UNL     1       8.888  25.567  18.527  0.00  0.00    +0.005 A 
ATOM     18  C   UNL     1       8.068  24.363  18.635  0.00  0.00    -0.033 A 
ATOM     28  C   UNL     1       8.687  23.060  18.458  0.00  0.00    +0.005 A 
ATOM     29  C   UNL     1      10.068  22.931  18.188  0.00  0.00    +0.013 A 
BRANCH  18  19
ATOM     19  C   UNL     1       6.561  24.403  18.949  0.00  0.00    +0.119 C 
BRANCH  19  20
ATOM     20  N   UNL     1       6.055  23.463  19.994  0.00  0.00    -0.302 NA
ATOM     21  C   UNL     1       4.636  22.975  19.689  0.00  0.00    +0.066 C 
ATOM     22  C   UNL     1       4.130  21.976  20.779  0.00  0.00    -0.064 C 
ATOM     23  N   UNL     1       4.188  22.650  22.151  0.00  0.00    +0.379 N 
ATOM     24  C   UNL     1       3.659  21.733  23.171  0.00  0.00    -0.096 C 
ATOM     25  H   UNL     1       3.519  23.542  22.118  0.00  0.00    -0.082 HD
ATOM     26  C   UNL     1       5.595  23.141  22.461  0.00  0.00    -0.064 C 
ATOM     27  C   UNL     1       6.098  24.111  21.356  0.00  0.00    +0.066 C 
ENDBRANCH  19  20
ENDBRANCH  18  19
ENDBRANCH  14  15
ENDBRANCH  12  13
TORSDOF 6
ENDMDL
MODEL 5
REMARK VINA RESULT:      -9.4      9.989     15.511
REMARK  Name = C:\Users\Docking\Desktop\test protocol\1iep_ligandH.pdb
REMARK  8 active torsions:
REMARK  status: ('A' for Active; 'I' for Inactive)
REMARK    1  A    between atoms: _5  and  _11
REMARK    2  A    between atoms: _19  and  _21
REMARK    3  A    between atoms: _22  and  _66
REMARK    4  A    between atoms: _27  and  _30
REMARK    5  A    between atoms: _32  and  _33
REMARK    6  A    between atoms: _38  and  _43
REMARK    7  A    between atoms: _43  and  _46
REMARK    8  A    between atoms: _53  and  _55
REMARK                            x       y       z     vdW  Elec       q    Type
REMARK                         _______ _______ _______ _____ _____    ______ ____
ROOT
ATOM     10  C   UNL     1      19.466  23.408  13.660  0.00  0.00    +0.038 A 
ATOM     11  C   UNL     1      18.112  23.535  14.062  0.00  0.00    +0.047 A 
ATOM     12  C   UNL     1      17.240  22.373  14.147  0.00  0.00    +0.035 A 
ATOM     32  C   UNL     1      17.781  21.097  13.816  0.00  0.00    +0.024 A 
ATOM     33  C   UNL     1      19.155  20.950  13.404  0.00  0.00    +0.007 A 
ATOM     34  C   UNL     1      20.019  22.092  13.317  0.00  0.00    -0.029 A 
ATOM     35  C   UNL     1      21.481  21.876  12.863  0.00  0.00    +0.045 C 
ENDROOT
BRANCH  10   9
ATOM      4  C   UNL     1      21.795  27.063  15.722  0.00  0.00    +0.077 A 
ATOM      5  C   UNL     1      21.376  26.666  17.035  0.00  0.00    +0.048 A 
ATOM      6  C   UNL     1      20.555  25.520  17.136  0.00  0.00    +0.116 A 
ATOM      7  N   UNL     1      20.188  24.830  16.002  0.00  0.00    -0.223 NA
ATOM      8  C   UNL     1      20.608  25.240  14.750  0.00  0.00    +0.220 A 
ATOM      9  N   UNL     1      20.258  24.556  13.596  0.00  0.00    -0.283 N 
ATOM     36  H   UNL     1      20.582  24.896  12.691  0.00  0.00    +0.155 HD
ATOM     37  N   UNL     1      21.391  26.332  14.627  0.00  0.00    -0.214 NA
BRANCH   4   3
ATOM      1  C   UNL     1      23.391  30.220  14.053  0.00  0.00    +0.020 A 
ATOM      2  C   UNL     1      22.524  29.084  14.265  0.00  0.00    +0.013 A 
ATOM      3  C   UNL     1      22.666  28.250  15.452  0.00  0.00    +0.019 A 
ATOM     38  C   UNL     1      23.702  28.597  16.413  0.00  0.00    +0.120 A 
ATOM     39  N   UNL     1      24.523  29.696  16.181  0.00  0.00    -0.263 NA
ATOM     40  C   UNL     1      24.397  30.504  15.041  0.00  0.00    +0.111 A 
ENDBRANCH   4   3
ENDBRANCH  10   9
BRANCH  12  13
ATOM     13  N   UNL     1      15.854  22.442  14.541  0.00  0.00    -0.281 N 
ATOM     14  C   UNL     1      14.748  21.976  13.850  0.00  0.00    +0.248 C 
ATOM     30  O   UNL     1      14.764  21.617  12.682  0.00  0.00    -0.270 OA
ATOM     31  H   UNL     1      15.667  22.888  15.439  0.00  0.00    +0.155 HD
BRANCH  14  15
ATOM     15  C   UNL     1      13.431  21.912  14.554  0.00  0.00    +0.037 A 
ATOM     16  C   UNL     1      12.345  21.062  14.059  0.00  0.00    +0.013 A 
ATOM     17  C   UNL     1      11.079  21.032  14.747  0.00  0.00    +0.005 A 
ATOM     18  C   UNL     1      10.893  21.854  15.940  0.00  0.00    -0.033 A 
ATOM     28  C   UNL     1      11.989  22.683  16.413  0.00  0.00    +0.005 A 
ATOM     29  C   UNL     1      13.231  22.716  15.740  0.00  0.00    +0.013 A 
BRANCH  18  19
ATOM     19  C   UNL     1       9.569  21.900  16.726  0.00  0.00    +0.119 C 
BRANCH  19  20
ATOM     20  N   UNL     1       9.444  22.936  17.795  0.00  0.00    -0.302 NA
ATOM     21  C   UNL     1       9.562  22.332  19.197  0.00  0.00    +0.066 C 
ATOM     22  C   UNL     1       9.452  23.433  20.302  0.00  0.00    -0.064 C 
ATOM     23  N   UNL     1       8.126  24.179  20.144  0.00  0.00    +0.379 N 
ATOM     24  C   UNL     1       7.993  25.175  21.216  0.00  0.00    -0.096 C 
ATOM     25  H   UNL     1       7.303  23.436  20.267  0.00  0.00    -0.082 HD
ATOM     26  C   UNL     1       7.998  24.780  18.751  0.00  0.00    -0.064 C 
ATOM     27  C   UNL     1       8.139  23.682  17.660  0.00  0.00    +0.066 C 
ENDBRANCH  19  20
ENDBRANCH  18  19
ENDBRANCH  14  15
ENDBRANCH  12  13
TORSDOF 6
ENDMDL
