MODEL 1
REMARK VINA RESULT:      -7.0      0.000      0.000
REMARK  Name = C:\Users\Docking\Desktop\test protocol\1iep_ligandH.pdb
REMARK  8 active torsions:
REMARK  status: ('A' for Active; 'I' for Inactive)
REMARK    1  A    between atoms: _5  and  _11
REMARK    2  A    between atoms: _19  and  _21
REMARK    3  A    between atoms: _22  and  _66
REMARK    4  A    between atoms: _27  and  _30
REMARK    5  A    between atoms: _32  and  _33
REMARK    6  A    between atoms: _38  and  _43
REMARK    7  A    between atoms: _43  and  _46
REMARK    8  A    between atoms: _53  and  _55
REMARK                            x       y       z     vdW  Elec       q    Type
REMARK                         _______ _______ _______ _____ _____    ______ ____
ROOT
ATOM     10  C   UNL     1      -5.478   8.914 149.235  0.00  0.00    +0.038 A 
ATOM     11  C   UNL     1      -5.853   8.528 150.547  0.00  0.00    +0.047 A 
ATOM     12  C   UNL     1      -6.720   7.383 150.776  0.00  0.00    +0.035 A 
ATOM     32  C   UNL     1      -7.186   6.651 149.645  0.00  0.00    +0.024 A 
ATOM     33  C   UNL     1      -6.815   7.030 148.304  0.00  0.00    +0.007 A 
ATOM     34  C   UNL     1      -5.962   8.160 148.072  0.00  0.00    -0.029 A 
ATOM     35  C   UNL     1      -5.603   8.524 146.613  0.00  0.00    +0.045 C 
ENDROOT
BRANCH  10   9
ATOM      4  C   UNL     1      -1.166  10.894 148.511  0.00  0.00    +0.077 A 
ATOM      5  C   UNL     1      -0.518   9.614 148.480  0.00  0.00    +0.048 A 
ATOM      6  C   UNL     1      -1.329   8.472 148.661  0.00  0.00    +0.116 A 
ATOM      7  N   UNL     1      -2.686   8.610 148.858  0.00  0.00    -0.223 NA
ATOM      8  C   UNL     1      -3.279   9.859 148.885  0.00  0.00    +0.220 A 
ATOM      9  N   UNL     1      -4.643  10.022 149.073  0.00  0.00    -0.283 N 
ATOM     36  H   UNL     1      -5.041  10.960 149.094  0.00  0.00    +0.155 HD
ATOM     37  N   UNL     1      -2.526  10.966 148.716  0.00  0.00    -0.214 NA
BRANCH   4   3
ATOM      1  C   UNL     1       0.233  14.499 149.101  0.00  0.00    +0.020 A 
ATOM      2  C   UNL     1      -0.482  13.263 149.322  0.00  0.00    +0.013 A 
ATOM      3  C   UNL     1      -0.445  12.194 148.332  0.00  0.00    +0.019 A 
ATOM     38  C   UNL     1       0.331  12.408 147.120  0.00  0.00    +0.120 A 
ATOM     39  N   UNL     1       1.008  13.609 146.934  0.00  0.00    -0.263 NA
ATOM     40  C   UNL     1       0.979  14.646 147.878  0.00  0.00    +0.111 A 
ENDBRANCH   4   3
ENDBRANCH  10   9
BRANCH  12  13
ATOM     13  N   UNL     1      -7.141   6.949 152.086  0.00  0.00    -0.281 N 
ATOM     14  C   UNL     1      -8.401   7.050 152.652  0.00  0.00    +0.248 C 
ATOM     30  O   UNL     1      -9.312   7.726 152.196  0.00  0.00    -0.270 OA
ATOM     31  H   UNL     1      -6.423   6.515 152.665  0.00  0.00    +0.155 HD
BRANCH  14  15
ATOM     15  C   UNL     1      -8.687   6.304 153.915  0.00  0.00    +0.037 A 
ATOM     16  C   UNL     1      -7.621   5.620 154.651  0.00  0.00    +0.013 A 
ATOM     17  C   UNL     1      -7.927   4.893 155.858  0.00  0.00    +0.005 A 
ATOM     18  C   UNL     1      -9.307   4.848 156.337  0.00  0.00    -0.033 A 
ATOM     28  C   UNL     1     -10.344   5.540 155.590  0.00  0.00    +0.005 A 
ATOM     29  C   UNL     1     -10.048   6.253 154.406  0.00  0.00    +0.013 A 
BRANCH  18  19
ATOM     19  C   UNL     1      -9.728   4.079 157.603  0.00  0.00    +0.119 C 
BRANCH  19  20
ATOM     20  N   UNL     1     -11.162   4.166 158.011  0.00  0.00    -0.302 NA
ATOM     21  C   UNL     1     -11.361   5.088 159.217  0.00  0.00    +0.066 C 
ATOM     22  C   UNL     1     -12.869   5.186 159.616  0.00  0.00    -0.064 C 
ATOM     23  N   UNL     1     -13.408   3.785 159.911  0.00  0.00    +0.379 N 
ATOM     24  C   UNL     1     -14.810   3.879 160.342  0.00  0.00    -0.096 C 
ATOM     25  H   UNL     1     -12.819   3.368 160.761  0.00  0.00    -0.082 HD
ATOM     26  C   UNL     1     -13.212   2.861 158.717  0.00  0.00    -0.064 C 
ATOM     27  C   UNL     1     -11.713   2.794 158.310  0.00  0.00    +0.066 C 
ENDBRANCH  19  20
ENDBRANCH  18  19
ENDBRANCH  14  15
ENDBRANCH  12  13
TORSDOF 6
ENDMDL
MODEL 2
REMARK VINA RESULT:      -6.8      9.411     15.896
REMARK  Name = C:\Users\Docking\Desktop\test protocol\1iep_ligandH.pdb
REMARK  8 active torsions:
REMARK  status: ('A' for Active; 'I' for Inactive)
REMARK    1  A    between atoms: _5  and  _11
REMARK    2  A    between atoms: _19  and  _21
REMARK    3  A    between atoms: _22  and  _66
REMARK    4  A    between atoms: _27  and  _30
REMARK    5  A    between atoms: _32  and  _33
REMARK    6  A    between atoms: _38  and  _43
REMARK    7  A    between atoms: _43  and  _46
REMARK    8  A    between atoms: _53  and  _55
REMARK                            x       y       z     vdW  Elec       q    Type
REMARK                         _______ _______ _______ _____ _____    ______ ____
ROOT
ATOM     10  C   UNL     1     -13.049  11.948 148.496  0.00  0.00    +0.038 A 
ATOM     11  C   UNL     1     -12.038  11.855 147.505  0.00  0.00    +0.047 A 
ATOM     12  C   UNL     1     -10.964  10.881 147.615  0.00  0.00    +0.035 A 
ATOM     32  C   UNL     1     -10.951  10.014 148.747  0.00  0.00    +0.024 A 
ATOM     33  C   UNL     1     -11.970  10.095 149.764  0.00  0.00    +0.007 A 
ATOM     34  C   UNL     1     -13.031  11.056 149.662  0.00  0.00    -0.029 A 
ATOM     35  C   UNL     1     -14.093  11.103 150.785  0.00  0.00    +0.045 C 
ENDROOT
BRANCH  10   9
ATOM      4  C   UNL     1     -17.341  13.340 146.860  0.00  0.00    +0.077 A 
ATOM      5  C   UNL     1     -17.584  12.069 146.242  0.00  0.00    +0.048 A 
ATOM      6  C   UNL     1     -16.576  11.086 146.362  0.00  0.00    +0.116 A 
ATOM      7  N   UNL     1     -15.416  11.365 147.051  0.00  0.00    -0.223 NA
ATOM      8  C   UNL     1     -15.213  12.602 147.634  0.00  0.00    +0.220 A 
ATOM      9  N   UNL     1     -14.057  12.901 148.339  0.00  0.00    -0.283 N 
ATOM     36  H   UNL     1     -13.942  13.828 148.748  0.00  0.00    +0.155 HD
ATOM     37  N   UNL     1     -16.159  13.558 147.533  0.00  0.00    -0.214 NA
BRANCH   4   3
ATOM      1  C   UNL     1     -19.203  16.627 145.845  0.00  0.00    +0.020 A 
ATOM      2  C   UNL     1     -18.241  15.550 145.837  0.00  0.00    +0.013 A 
ATOM      3  C   UNL     1     -18.312  14.480 146.824  0.00  0.00    +0.019 A 
ATOM     38  C   UNL     1     -19.379  14.529 147.812  0.00  0.00    +0.120 A 
ATOM     39  N   UNL     1     -20.291  15.579 147.797  0.00  0.00    -0.263 NA
ATOM     40  C   UNL     1     -20.231  16.616 146.853  0.00  0.00    +0.111 A 
ENDBRANCH   4   3
ENDBRANCH  10   9
BRANCH  12  13
ATOM     13  N   UNL     1      -9.906  10.746 146.645  0.00  0.00    -0.281 N 
ATOM     14  C   UNL     1      -9.606  11.590 145.589  0.00  0.00    +0.248 C 
ATOM     30  O   UNL     1     -10.339  12.483 145.188  0.00  0.00    -0.270 OA
ATOM     31  H   UNL     1      -9.305   9.928 146.750  0.00  0.00    +0.155 HD
BRANCH  14  15
ATOM     15  C   UNL     1      -8.312  11.408 144.863  0.00  0.00    +0.037 A 
ATOM     16  C   UNL     1      -8.191  10.463 143.750  0.00  0.00    +0.013 A 
ATOM     17  C   UNL     1      -6.926  10.294 143.079  0.00  0.00    +0.005 A 
ATOM     18  C   UNL     1      -5.772  11.075 143.519  0.00  0.00    -0.033 A 
ATOM     28  C   UNL     1      -5.922  12.010 144.622  0.00  0.00    +0.005 A 
ATOM     29  C   UNL     1      -7.159  12.177 145.283  0.00  0.00    +0.013 A 
BRANCH  18  19
ATOM     19  C   UNL     1      -4.380  10.944 142.874  0.00  0.00    +0.119 C 
BRANCH  19  20
ATOM     20  N   UNL     1      -4.260  11.298 141.428  0.00  0.00    -0.302 NA
ATOM     21  C   UNL     1      -2.920  10.849 140.836  0.00  0.00    +0.066 C 
ATOM     22  C   UNL     1      -2.821  11.207 139.318  0.00  0.00    -0.064 C 
ATOM     23  N   UNL     1      -3.016  12.713 139.137  0.00  0.00    +0.379 N 
ATOM     24  C   UNL     1      -2.865  13.060 137.716  0.00  0.00    -0.096 C 
ATOM     25  H   UNL     1      -2.203  13.229 139.700  0.00  0.00    -0.082 HD
ATOM     26  C   UNL     1      -4.344  13.168 139.725  0.00  0.00    -0.064 C 
ATOM     27  C   UNL     1      -4.445  12.782 141.227  0.00  0.00    +0.066 C 
ENDBRANCH  19  20
ENDBRANCH  18  19
ENDBRANCH  14  15
ENDBRANCH  12  13
TORSDOF 6
ENDMDL
MODEL 3
REMARK VINA RESULT:      -6.6     34.097     36.259
REMARK  Name = C:\Users\Docking\Desktop\test protocol\1iep_ligandH.pdb
REMARK  8 active torsions:
REMARK  status: ('A' for Active; 'I' for Inactive)
REMARK    1  A    between atoms: _5  and  _11
REMARK    2  A    between atoms: _19  and  _21
REMARK    3  A    between atoms: _22  and  _66
REMARK    4  A    between atoms: _27  and  _30
REMARK    5  A    between atoms: _32  and  _33
REMARK    6  A    between atoms: _38  and  _43
REMARK    7  A    between atoms: _43  and  _46
REMARK    8  A    between atoms: _53  and  _55
REMARK                            x       y       z     vdW  Elec       q    Type
REMARK                         _______ _______ _______ _____ _____    ______ ____
ROOT
ATOM     10  C   UNL     1      24.338  -4.130 169.650  0.00  0.00    +0.038 A 
ATOM     11  C   UNL     1      23.186  -3.318 169.809  0.00  0.00    +0.047 A 
ATOM     12  C   UNL     1      22.527  -2.715 168.661  0.00  0.00    +0.035 A 
ATOM     32  C   UNL     1      23.067  -2.961 167.365  0.00  0.00    +0.024 A 
ATOM     33  C   UNL     1      24.238  -3.782 167.186  0.00  0.00    +0.007 A 
ATOM     34  C   UNL     1      24.894  -4.378 168.315  0.00  0.00    -0.029 A 
ATOM     35  C   UNL     1      26.150  -5.245 168.064  0.00  0.00    +0.045 C 
ENDROOT
BRANCH  10   9
ATOM      4  C   UNL     1      25.075  -7.769 172.691  0.00  0.00    +0.077 A 
ATOM      5  C   UNL     1      24.184  -8.631 171.969  0.00  0.00    +0.048 A 
ATOM      6  C   UNL     1      23.550  -8.096 170.825  0.00  0.00    +0.116 A 
ATOM      7  N   UNL     1      23.797  -6.796 170.440  0.00  0.00    -0.223 NA
ATOM      8  C   UNL     1      24.661  -5.992 171.160  0.00  0.00    +0.220 A 
ATOM      9  N   UNL     1      24.931  -4.684 170.787  0.00  0.00    -0.283 N 
ATOM     36  H   UNL     1      25.569  -4.121 171.349  0.00  0.00    +0.155 HD
ATOM     37  N   UNL     1      25.278  -6.478 172.257  0.00  0.00    -0.214 NA
BRANCH   4   3
ATOM      1  C   UNL     1      26.794  -9.938 175.456  0.00  0.00    +0.020 A 
ATOM      2  C   UNL     1      26.066  -9.586 174.259  0.00  0.00    +0.013 A 
ATOM      3  C   UNL     1      25.823  -8.189 173.919  0.00  0.00    +0.019 A 
ATOM     38  C   UNL     1      26.333  -7.166 174.818  0.00  0.00    +0.120 A 
ATOM     39  N   UNL     1      27.029  -7.535 175.965  0.00  0.00    -0.263 NA
ATOM     40  C   UNL     1      27.268  -8.875 176.303  0.00  0.00    +0.111 A 
ENDBRANCH   4   3
ENDBRANCH  10   9
BRANCH  12  13
ATOM     13  N   UNL     1      21.359  -1.875 168.761  0.00  0.00    -0.281 N 
ATOM     14  C   UNL     1      20.718  -1.441 169.910  0.00  0.00    +0.248 C 
ATOM     30  O   UNL     1      20.928  -1.886 171.028  0.00  0.00    -0.270 OA
ATOM     31  H   UNL     1      20.955  -1.563 167.877  0.00  0.00    +0.155 HD
BRANCH  14  15
ATOM     15  C   UNL     1      19.685  -0.367 169.798  0.00  0.00    +0.037 A 
ATOM     16  C   UNL     1      18.850   0.006 170.943  0.00  0.00    +0.013 A 
ATOM     17  C   UNL     1      17.849   1.034 170.803  0.00  0.00    +0.005 A 
ATOM     18  C   UNL     1      17.678   1.697 169.512  0.00  0.00    -0.033 A 
ATOM     28  C   UNL     1      18.523   1.310 168.395  0.00  0.00    +0.005 A 
ATOM     29  C   UNL     1      19.505   0.303 168.528  0.00  0.00    +0.013 A 
BRANCH  18  19
ATOM     19  C   UNL     1      16.620   2.789 169.266  0.00  0.00    +0.119 C 
BRANCH  19  20
ATOM     20  N   UNL     1      16.378   3.201 167.851  0.00  0.00    -0.302 NA
ATOM     21  C   UNL     1      16.128   4.706 167.726  0.00  0.00    +0.066 C 
ATOM     22  C   UNL     1      15.900   5.123 166.236  0.00  0.00    -0.064 C 
ATOM     23  N   UNL     1      14.725   4.329 165.662  0.00  0.00    +0.379 N 
ATOM     24  C   UNL     1      14.470   4.760 164.280  0.00  0.00    -0.096 C 
ATOM     25  H   UNL     1      13.821   4.578 166.266  0.00  0.00    -0.082 HD
ATOM     26  C   UNL     1      14.964   2.831 165.786  0.00  0.00    -0.064 C 
ATOM     27  C   UNL     1      15.219   2.432 167.266  0.00  0.00    +0.066 C 
ENDBRANCH  19  20
ENDBRANCH  18  19
ENDBRANCH  14  15
ENDBRANCH  12  13
TORSDOF 6
ENDMDL
MODEL 4
REMARK VINA RESULT:      -6.5      2.214      3.112
REMARK  Name = C:\Users\Docking\Desktop\test protocol\1iep_ligandH.pdb
REMARK  8 active torsions:
REMARK  status: ('A' for Active; 'I' for Inactive)
REMARK    1  A    between atoms: _5  and  _11
REMARK    2  A    between atoms: _19  and  _21
REMARK    3  A    between atoms: _22  and  _66
REMARK    4  A    between atoms: _27  and  _30
REMARK    5  A    between atoms: _32  and  _33
REMARK    6  A    between atoms: _38  and  _43
REMARK    7  A    between atoms: _43  and  _46
REMARK    8  A    between atoms: _53  and  _55
REMARK                            x       y       z     vdW  Elec       q    Type
REMARK                         _______ _______ _______ _____ _____    ______ ____
ROOT
ATOM     10  C   UNL     1      -5.749   9.048 149.205  0.00  0.00    +0.038 A 
ATOM     11  C   UNL     1      -5.931   8.452 150.479  0.00  0.00    +0.047 A 
ATOM     12  C   UNL     1      -6.838   7.330 150.663  0.00  0.00    +0.035 A 
ATOM     32  C   UNL     1      -7.542   6.838 149.526  0.00  0.00    +0.024 A 
ATOM     33  C   UNL     1      -7.370   7.431 148.223  0.00  0.00    +0.007 A 
ATOM     34  C   UNL     1      -6.478   8.540 148.037  0.00  0.00    -0.029 A 
ATOM     35  C   UNL     1      -6.338   9.142 146.619  0.00  0.00    +0.045 C 
ENDROOT
BRANCH  10   9
ATOM      4  C   UNL     1      -1.352  10.861 148.554  0.00  0.00    +0.077 A 
ATOM      5  C   UNL     1      -0.762   9.556 148.471  0.00  0.00    +0.048 A 
ATOM      6  C   UNL     1      -1.623   8.444 148.608  0.00  0.00    +0.116 A 
ATOM      7  N   UNL     1      -2.973   8.635 148.812  0.00  0.00    -0.223 NA
ATOM      8  C   UNL     1      -3.510   9.907 148.889  0.00  0.00    +0.220 A 
ATOM      9  N   UNL     1      -4.865  10.123 149.086  0.00  0.00    -0.283 N 
ATOM     36  H   UNL     1      -5.221  11.076 149.144  0.00  0.00    +0.155 HD
ATOM     37  N   UNL     1      -2.708  10.985 148.763  0.00  0.00    -0.214 NA
BRANCH   4   3
ATOM      1  C   UNL     1       0.131  14.415 149.239  0.00  0.00    +0.020 A 
ATOM      2  C   UNL     1      -0.641  13.206 149.410  0.00  0.00    +0.013 A 
ATOM      3  C   UNL     1      -0.574  12.133 148.426  0.00  0.00    +0.019 A 
ATOM     38  C   UNL     1       0.292  12.316 147.271  0.00  0.00    +0.120 A 
ATOM     39  N   UNL     1       1.023  13.492 147.131  0.00  0.00    -0.263 NA
ATOM     40  C   UNL     1       0.965  14.532 148.071  0.00  0.00    +0.111 A 
ENDBRANCH   4   3
ENDBRANCH  10   9
BRANCH  12  13
ATOM     13  N   UNL     1      -7.069   6.690 151.934  0.00  0.00    -0.281 N 
ATOM     14  C   UNL     1      -8.214   6.733 152.713  0.00  0.00    +0.248 C 
ATOM     30  O   UNL     1      -9.144   7.506 152.534  0.00  0.00    -0.270 OA
ATOM     31  H   UNL     1      -6.295   6.140 152.305  0.00  0.00    +0.155 HD
BRANCH  14  15
ATOM     15  C   UNL     1      -8.339   5.789 153.865  0.00  0.00    +0.037 A 
ATOM     16  C   UNL     1      -9.282   6.044 154.958  0.00  0.00    +0.013 A 
ATOM     17  C   UNL     1      -9.370   5.126 156.066  0.00  0.00    +0.005 A 
ATOM     18  C   UNL     1      -8.513   3.943 156.086  0.00  0.00    -0.033 A 
ATOM     28  C   UNL     1      -7.591   3.712 154.986  0.00  0.00    +0.005 A 
ATOM     29  C   UNL     1      -7.501   4.610 153.899  0.00  0.00    +0.013 A 
BRANCH  18  19
ATOM     19  C   UNL     1      -8.525   2.921 157.238  0.00  0.00    +0.119 C 
BRANCH  19  20
ATOM     20  N   UNL     1      -7.785   3.286 158.483  0.00  0.00    -0.302 NA
ATOM     21  C   UNL     1      -6.596   4.206 158.195  0.00  0.00    +0.066 C 
ATOM     22  C   UNL     1      -5.847   4.596 159.511  0.00  0.00    -0.064 C 
ATOM     23  N   UNL     1      -5.387   3.326 160.228  0.00  0.00    +0.379 N 
ATOM     24  C   UNL     1      -4.632   3.690 161.436  0.00  0.00    -0.096 C 
ATOM     25  H   UNL     1      -4.692   2.784 159.545  0.00  0.00    -0.082 HD
ATOM     26  C   UNL     1      -6.563   2.403 160.516  0.00  0.00    -0.064 C 
ATOM     27  C   UNL     1      -7.318   2.046 159.205  0.00  0.00    +0.066 C 
ENDBRANCH  19  20
ENDBRANCH  18  19
ENDBRANCH  14  15
ENDBRANCH  12  13
TORSDOF 6
ENDMDL
MODEL 5
REMARK VINA RESULT:      -6.4     13.549     15.688
REMARK  Name = C:\Users\Docking\Desktop\test protocol\1iep_ligandH.pdb
REMARK  8 active torsions:
REMARK  status: ('A' for Active; 'I' for Inactive)
REMARK    1  A    between atoms: _5  and  _11
REMARK    2  A    between atoms: _19  and  _21
REMARK    3  A    between atoms: _22  and  _66
REMARK    4  A    between atoms: _27  and  _30
REMARK    5  A    between atoms: _32  and  _33
REMARK    6  A    between atoms: _38  and  _43
REMARK    7  A    between atoms: _43  and  _46
REMARK    8  A    between atoms: _53  and  _55
REMARK                            x       y       z     vdW  Elec       q    Type
REMARK                         _______ _______ _______ _____ _____    ______ ____
ROOT
ATOM     10  C   UNL     1     -14.783  15.537 139.817  0.00  0.00    +0.038 A 
ATOM     11  C   UNL     1     -14.581  15.356 141.209  0.00  0.00    +0.047 A 
ATOM     12  C   UNL     1     -14.696  14.042 141.822  0.00  0.00    +0.035 A 
ATOM     32  C   UNL     1     -15.017  12.933 140.986  0.00  0.00    +0.024 A 
ATOM     33  C   UNL     1     -15.227  13.099 139.570  0.00  0.00    +0.007 A 
ATOM     34  C   UNL     1     -15.117  14.393 138.960  0.00  0.00    -0.029 A 
ATOM     35  C   UNL     1     -15.359  14.513 137.437  0.00  0.00    +0.045 C 
ENDROOT
BRANCH  10   9
ATOM      4  C   UNL     1     -16.539  19.887 138.804  0.00  0.00    +0.077 A 
ATOM      5  C   UNL     1     -17.820  19.566 139.364  0.00  0.00    +0.048 A 
ATOM      6  C   UNL     1     -17.988  18.268 139.897  0.00  0.00    +0.116 A 
ATOM      7  N   UNL     1     -16.946  17.367 139.866  0.00  0.00    -0.223 NA
ATOM      8  C   UNL     1     -15.724  17.709 139.316  0.00  0.00    +0.220 A 
ATOM      9  N   UNL     1     -14.659  16.821 139.282  0.00  0.00    -0.283 N 
ATOM     36  H   UNL     1     -13.776  17.109 138.861  0.00  0.00    +0.155 HD
ATOM     37  N   UNL     1     -15.539  18.941 138.800  0.00  0.00    -0.214 NA
BRANCH   4   3
ATOM      1  C   UNL     1     -15.522  23.640 138.380  0.00  0.00    +0.020 A 
ATOM      2  C   UNL     1     -15.835  22.377 139.008  0.00  0.00    +0.013 A 
ATOM      3  C   UNL     1     -16.206  21.219 138.205  0.00  0.00    +0.019 A 
ATOM     38  C   UNL     1     -16.251  21.373 136.759  0.00  0.00    +0.120 A 
ATOM     39  N   UNL     1     -15.946  22.602 136.183  0.00  0.00    -0.263 NA
ATOM     40  C   UNL     1     -15.589  23.724 136.945  0.00  0.00    +0.111 A 
ENDBRANCH   4   3
ENDBRANCH  10   9
BRANCH  12  13
ATOM     13  N   UNL     1     -14.510  13.799 143.231  0.00  0.00    -0.281 N 
ATOM     14  C   UNL     1     -15.481  13.695 144.213  0.00  0.00    +0.248 C 
ATOM     30  O   UNL     1     -16.652  14.010 144.063  0.00  0.00    -0.270 OA
ATOM     31  H   UNL     1     -13.544  13.690 143.542  0.00  0.00    +0.155 HD
BRANCH  14  15
ATOM     15  C   UNL     1     -15.093  13.181 145.562  0.00  0.00    +0.037 A 
ATOM     16  C   UNL     1     -14.921  14.087 146.700  0.00  0.00    +0.013 A 
ATOM     17  C   UNL     1     -14.529  13.567 147.986  0.00  0.00    +0.005 A 
ATOM     18  C   UNL     1     -14.307  12.131 148.140  0.00  0.00    -0.033 A 
ATOM     28  C   UNL     1     -14.490  11.254 146.996  0.00  0.00    +0.005 A 
ATOM     29  C   UNL     1     -14.873  11.761 145.733  0.00  0.00    +0.013 A 
BRANCH  18  19
ATOM     19  C   UNL     1     -13.867  11.491 149.470  0.00  0.00    +0.119 C 
BRANCH  19  20
ATOM     20  N   UNL     1     -12.984  10.289 149.391  0.00  0.00    -0.302 NA
ATOM     21  C   UNL     1     -13.399   9.205 150.389  0.00  0.00    +0.066 C 
ATOM     22  C   UNL     1     -12.478   7.946 150.278  0.00  0.00    -0.064 C 
ATOM     23  N   UNL     1     -11.023   8.360 150.502  0.00  0.00    +0.379 N 
ATOM     24  C   UNL     1     -10.161   7.170 150.455  0.00  0.00    -0.096 C 
ATOM     25  H   UNL     1     -10.948   8.792 151.527  0.00  0.00    -0.082 HD
ATOM     26  C   UNL     1     -10.603   9.441 149.515  0.00  0.00    -0.064 C 
ATOM     27  C   UNL     1     -11.542  10.675 149.614  0.00  0.00    +0.066 C 
ENDBRANCH  19  20
ENDBRANCH  18  19
ENDBRANCH  14  15
ENDBRANCH  12  13
TORSDOF 6
ENDMDL
