MODEL 1
REMARK VINA RESULT:      -8.0      0.000      0.000
REMARK  Name = C:\Users\Docking\Desktop\test protocol\1iep_ligandH.pdb
REMARK  8 active torsions:
REMARK  status: ('A' for Active; 'I' for Inactive)
REMARK    1  A    between atoms: _5  and  _11
REMARK    2  A    between atoms: _19  and  _21
REMARK    3  A    between atoms: _22  and  _66
REMARK    4  A    between atoms: _27  and  _30
REMARK    5  A    between atoms: _32  and  _33
REMARK    6  A    between atoms: _38  and  _43
REMARK    7  A    between atoms: _43  and  _46
REMARK    8  A    between atoms: _53  and  _55
REMARK                            x       y       z     vdW  Elec       q    Type
REMARK                         _______ _______ _______ _____ _____    ______ ____
ROOT
ATOM     10  C   UNL     1      43.328  -7.307   8.106  0.00  0.00    +0.038 A 
ATOM     11  C   UNL     1      42.355  -8.136   8.719  0.00  0.00    +0.047 A 
ATOM     12  C   UNL     1      41.390  -8.879   7.923  0.00  0.00    +0.035 A 
ATOM     32  C   UNL     1      41.447  -8.755   6.504  0.00  0.00    +0.024 A 
ATOM     33  C   UNL     1      42.428  -7.915   5.865  0.00  0.00    +0.007 A 
ATOM     34  C   UNL     1      43.381  -7.178   6.645  0.00  0.00    -0.029 A 
ATOM     35  C   UNL     1      44.407  -6.288   5.905  0.00  0.00    +0.045 C 
ENDROOT
BRANCH  10   9
ATOM      4  C   UNL     1      47.368  -7.060  10.686  0.00  0.00    +0.077 A 
ATOM      5  C   UNL     1      47.695  -8.431  10.415  0.00  0.00    +0.048 A 
ATOM      6  C   UNL     1      46.794  -9.166   9.613  0.00  0.00    +0.116 A 
ATOM      7  N   UNL     1      45.654  -8.566   9.124  0.00  0.00    -0.223 NA
ATOM      8  C   UNL     1      45.367  -7.243   9.406  0.00  0.00    +0.220 A 
ATOM      9  N   UNL     1      44.231  -6.616   8.918  0.00  0.00    -0.283 N 
ATOM     36  H   UNL     1      44.052  -5.641   9.155  0.00  0.00    +0.155 HD
ATOM     37  N   UNL     1      46.211  -6.519  10.171  0.00  0.00    -0.214 NA
BRANCH   4   3
ATOM      1  C   UNL     1      48.961  -3.867  12.289  0.00  0.00    +0.020 A 
ATOM      2  C   UNL     1      48.112  -4.699  11.467  0.00  0.00    +0.013 A 
ATOM      3  C   UNL     1      48.222  -6.152  11.515  0.00  0.00    +0.019 A 
ATOM     38  C   UNL     1      49.208  -6.736  12.412  0.00  0.00    +0.120 A 
ATOM     39  N   UNL     1      50.013  -5.909  13.190  0.00  0.00    -0.263 NA
ATOM     40  C   UNL     1      49.918  -4.510  13.151  0.00  0.00    +0.111 A 
ENDBRANCH   4   3
ENDBRANCH  10   9
BRANCH  12  13
ATOM     13  N   UNL     1      40.374  -9.731   8.490  0.00  0.00    -0.281 N 
ATOM     14  C   UNL     1      39.141  -9.361   9.000  0.00  0.00    +0.248 C 
ATOM     30  O   UNL     1      38.809  -8.210   9.243  0.00  0.00    -0.270 OA
ATOM     31  H   UNL     1      40.591 -10.727   8.519  0.00  0.00    +0.155 HD
BRANCH  14  15
ATOM     15  C   UNL     1      38.134 -10.426   9.298  0.00  0.00    +0.037 A 
ATOM     16  C   UNL     1      38.447 -11.536  10.201  0.00  0.00    +0.013 A 
ATOM     17  C   UNL     1      37.464 -12.558  10.458  0.00  0.00    +0.005 A 
ATOM     18  C   UNL     1      36.157 -12.474   9.810  0.00  0.00    -0.033 A 
ATOM     28  C   UNL     1      35.872 -11.359   8.922  0.00  0.00    +0.005 A 
ATOM     29  C   UNL     1      36.833 -10.356   8.668  0.00  0.00    +0.013 A 
BRANCH  18  19
ATOM     19  C   UNL     1      35.055 -13.532  10.009  0.00  0.00    +0.119 C 
BRANCH  19  20
ATOM     20  N   UNL     1      34.583 -13.773  11.405  0.00  0.00    -0.302 NA
ATOM     21  C   UNL     1      33.457 -14.809  11.460  0.00  0.00    +0.066 C 
ATOM     22  C   UNL     1      32.990 -15.066  12.930  0.00  0.00    -0.064 C 
ATOM     23  N   UNL     1      32.541 -13.745  13.557  0.00  0.00    +0.379 N 
ATOM     24  C   UNL     1      32.048 -13.992  14.920  0.00  0.00    -0.096 C 
ATOM     25  H   UNL     1      31.689 -13.356  12.953  0.00  0.00    -0.082 HD
ATOM     26  C   UNL     1      33.654 -12.707  13.504  0.00  0.00    -0.064 C 
ATOM     27  C   UNL     1      34.131 -12.482  12.042  0.00  0.00    +0.066 C 
ENDBRANCH  19  20
ENDBRANCH  18  19
ENDBRANCH  14  15
ENDBRANCH  12  13
TORSDOF 6
ENDMDL
MODEL 2
REMARK VINA RESULT:      -7.9      7.548     13.646
REMARK  Name = C:\Users\Docking\Desktop\test protocol\1iep_ligandH.pdb
REMARK  8 active torsions:
REMARK  status: ('A' for Active; 'I' for Inactive)
REMARK    1  A    between atoms: _5  and  _11
REMARK    2  A    between atoms: _19  and  _21
REMARK    3  A    between atoms: _22  and  _66
REMARK    4  A    between atoms: _27  and  _30
REMARK    5  A    between atoms: _32  and  _33
REMARK    6  A    between atoms: _38  and  _43
REMARK    7  A    between atoms: _43  and  _46
REMARK    8  A    between atoms: _53  and  _55
REMARK                            x       y       z     vdW  Elec       q    Type
REMARK                         _______ _______ _______ _____ _____    ______ ____
ROOT
ATOM     10  C   UNL     1      32.642 -15.170  12.075  0.00  0.00    +0.038 A 
ATOM     11  C   UNL     1      31.829 -16.151  11.453  0.00  0.00    +0.047 A 
ATOM     12  C   UNL     1      31.080 -17.118  12.241  0.00  0.00    +0.035 A 
ATOM     32  C   UNL     1      31.180 -17.054  13.661  0.00  0.00    +0.024 A 
ATOM     33  C   UNL     1      32.003 -16.063  14.310  0.00  0.00    +0.007 A 
ATOM     34  C   UNL     1      32.746 -15.109  13.538  0.00  0.00    -0.029 A 
ATOM     35  C   UNL     1      33.617 -14.073  14.287  0.00  0.00    +0.045 C 
ENDROOT
BRANCH  10   9
ATOM      4  C   UNL     1      36.375 -13.977   9.304  0.00  0.00    +0.077 A 
ATOM      5  C   UNL     1      37.002 -15.252   9.498  0.00  0.00    +0.048 A 
ATOM      6  C   UNL     1      36.335 -16.184  10.324  0.00  0.00    +0.116 A 
ATOM      7  N   UNL     1      35.131 -15.855  10.907  0.00  0.00    -0.223 NA
ATOM      8  C   UNL     1      34.554 -14.616  10.700  0.00  0.00    +0.220 A 
ATOM      9  N   UNL     1      33.339 -14.266  11.270  0.00  0.00    -0.283 N 
ATOM     36  H   UNL     1      32.950 -13.339  11.099  0.00  0.00    +0.155 HD
ATOM     37  N   UNL     1      35.171 -13.708   9.916  0.00  0.00    -0.214 NA
BRANCH   4   3
ATOM      1  C   UNL     1      37.009 -11.465   6.373  0.00  0.00    +0.020 A 
ATOM      2  C   UNL     1      36.412 -12.525   7.152  0.00  0.00    +0.013 A 
ATOM      3  C   UNL     1      36.954 -12.888   8.455  0.00  0.00    +0.019 A 
ATOM     38  C   UNL     1      38.110 -12.152   8.946  0.00  0.00    +0.120 A 
ATOM     39  N   UNL     1      38.664 -11.136   8.173  0.00  0.00    -0.263 NA
ATOM     40  C   UNL     1      38.152 -10.780   6.916  0.00  0.00    +0.111 A 
ENDBRANCH   4   3
ENDBRANCH  10   9
BRANCH  12  13
ATOM     13  N   UNL     1      30.245 -18.142  11.665  0.00  0.00    -0.281 N 
ATOM     14  C   UNL     1      30.398 -19.516  11.754  0.00  0.00    +0.248 C 
ATOM     30  O   UNL     1      31.404 -20.074  12.167  0.00  0.00    -0.270 OA
ATOM     31  H   UNL     1      29.443 -17.815  11.126  0.00  0.00    +0.155 HD
BRANCH  14  15
ATOM     15  C   UNL     1      29.278 -20.398  11.306  0.00  0.00    +0.037 A 
ATOM     16  C   UNL     1      28.189 -20.765  12.215  0.00  0.00    +0.013 A 
ATOM     17  C   UNL     1      27.130 -21.631  11.763  0.00  0.00    +0.005 A 
ATOM     18  C   UNL     1      27.153 -22.136  10.392  0.00  0.00    -0.033 A 
ATOM     28  C   UNL     1      28.242 -21.752   9.509  0.00  0.00    +0.005 A 
ATOM     29  C   UNL     1      29.283 -20.904   9.950  0.00  0.00    +0.013 A 
BRANCH  18  19
ATOM     19  C   UNL     1      26.076 -23.082   9.831  0.00  0.00    +0.119 C 
BRANCH  19  20
ATOM     20  N   UNL     1      24.916 -22.457   9.126  0.00  0.00    -0.302 NA
ATOM     21  C   UNL     1      25.349 -21.702   7.866  0.00  0.00    +0.066 C 
ATOM     22  C   UNL     1      24.121 -21.073   7.130  0.00  0.00    -0.064 C 
ATOM     23  N   UNL     1      23.376 -20.144   8.089  0.00  0.00    +0.379 N 
ATOM     24  C   UNL     1      22.255 -19.507   7.383  0.00  0.00    -0.096 C 
ATOM     25  H   UNL     1      24.083 -19.339   8.398  0.00  0.00    -0.082 HD
ATOM     26  C   UNL     1      22.944 -20.886   9.346  0.00  0.00    -0.064 C 
ATOM     27  C   UNL     1      24.168 -21.532  10.054  0.00  0.00    +0.066 C 
ENDBRANCH  19  20
ENDBRANCH  18  19
ENDBRANCH  14  15
ENDBRANCH  12  13
TORSDOF 6
ENDMDL
MODEL 3
REMARK VINA RESULT:      -7.9     21.652     26.201
REMARK  Name = C:\Users\Docking\Desktop\test protocol\1iep_ligandH.pdb
REMARK  8 active torsions:
REMARK  status: ('A' for Active; 'I' for Inactive)
REMARK    1  A    between atoms: _5  and  _11
REMARK    2  A    between atoms: _19  and  _21
REMARK    3  A    between atoms: _22  and  _66
REMARK    4  A    between atoms: _27  and  _30
REMARK    5  A    between atoms: _32  and  _33
REMARK    6  A    between atoms: _38  and  _43
REMARK    7  A    between atoms: _43  and  _46
REMARK    8  A    between atoms: _53  and  _55
REMARK                            x       y       z     vdW  Elec       q    Type
REMARK                         _______ _______ _______ _____ _____    ______ ____
ROOT
ATOM     10  C   UNL     1      18.625  -6.367   0.553  0.00  0.00    +0.038 A 
ATOM     11  C   UNL     1      19.891  -5.773   0.314  0.00  0.00    +0.047 A 
ATOM     12  C   UNL     1      20.049  -4.709  -0.665  0.00  0.00    +0.035 A 
ATOM     32  C   UNL     1      18.896  -4.273  -1.381  0.00  0.00    +0.024 A 
ATOM     33  C   UNL     1      17.603  -4.867  -1.152  0.00  0.00    +0.007 A 
ATOM     34  C   UNL     1      17.441  -5.918  -0.189  0.00  0.00    -0.029 A 
ATOM     35  C   UNL     1      16.032  -6.523   0.012  0.00  0.00    +0.045 C 
ENDROOT
BRANCH  10   9
ATOM      4  C   UNL     1      18.604 -11.000   1.808  0.00  0.00    +0.077 A 
ATOM      5  C   UNL     1      18.768 -11.430   0.449  0.00  0.00    +0.048 A 
ATOM      6  C   UNL     1      18.846 -10.427  -0.543  0.00  0.00    +0.116 A 
ATOM      7  N   UNL     1      18.766  -9.097  -0.192  0.00  0.00    -0.223 NA
ATOM      8  C   UNL     1      18.606  -8.717   1.128  0.00  0.00    +0.220 A 
ATOM      9  N   UNL     1      18.531  -7.385   1.505  0.00  0.00    -0.283 N 
ATOM     36  H   UNL     1      18.405  -7.146   2.488  0.00  0.00    +0.155 HD
ATOM     37  N   UNL     1      18.527  -9.655   2.094  0.00  0.00    -0.214 NA
BRANCH   4   3
ATOM      1  C   UNL     1      18.306 -14.248   3.968  0.00  0.00    +0.020 A 
ATOM      2  C   UNL     1      18.395 -13.384   2.813  0.00  0.00    +0.013 A 
ATOM      3  C   UNL     1      18.508 -11.940   2.970  0.00  0.00    +0.019 A 
ATOM     38  C   UNL     1      18.528 -11.396   4.320  0.00  0.00    +0.120 A 
ATOM     39  N   UNL     1      18.439 -12.252   5.413  0.00  0.00    -0.263 NA
ATOM     40  C   UNL     1      18.329 -13.644   5.274  0.00  0.00    +0.111 A 
ENDBRANCH   4   3
ENDBRANCH  10   9
BRANCH  12  13
ATOM     13  N   UNL     1      21.310  -4.073  -0.957  0.00  0.00    -0.281 N 
ATOM     14  C   UNL     1      22.118  -4.253  -2.068  0.00  0.00    +0.248 C 
ATOM     30  O   UNL     1      21.981  -5.153  -2.883  0.00  0.00    -0.270 OA
ATOM     31  H   UNL     1      21.648  -3.409  -0.259  0.00  0.00    +0.155 HD
BRANCH  14  15
ATOM     15  C   UNL     1      23.250  -3.304  -2.299  0.00  0.00    +0.037 A 
ATOM     16  C   UNL     1      23.009  -1.883  -2.559  0.00  0.00    +0.013 A 
ATOM     17  C   UNL     1      24.118  -0.993  -2.795  0.00  0.00    +0.005 A 
ATOM     18  C   UNL     1      25.479  -1.523  -2.771  0.00  0.00    -0.033 A 
ATOM     28  C   UNL     1      25.690  -2.936  -2.505  0.00  0.00    +0.005 A 
ATOM     29  C   UNL     1      24.605  -3.812  -2.274  0.00  0.00    +0.013 A 
BRANCH  18  19
ATOM     19  C   UNL     1      26.721  -0.650  -3.033  0.00  0.00    +0.119 C 
BRANCH  19  20
ATOM     20  N   UNL     1      26.801   0.047  -4.351  0.00  0.00    -0.302 NA
ATOM     21  C   UNL     1      28.240   0.139  -4.866  0.00  0.00    +0.066 C 
ATOM     22  C   UNL     1      28.303   0.851  -6.256  0.00  0.00    -0.064 C 
ATOM     23  N   UNL     1      27.678   2.243  -6.142  0.00  0.00    +0.379 N 
ATOM     24  C   UNL     1      27.788   2.937  -7.433  0.00  0.00    -0.096 C 
ATOM     25  H   UNL     1      28.273   2.820  -5.396  0.00  0.00    -0.082 HD
ATOM     26  C   UNL     1      26.248   2.160  -5.628  0.00  0.00    -0.064 C 
ATOM     27  C   UNL     1      26.193   1.425  -4.260  0.00  0.00    +0.066 C 
ENDBRANCH  19  20
ENDBRANCH  18  19
ENDBRANCH  14  15
ENDBRANCH  12  13
TORSDOF 6
ENDMDL
MODEL 4
REMARK VINA RESULT:      -7.8      4.706     15.969
REMARK  Name = C:\Users\Docking\Desktop\test protocol\1iep_ligandH.pdb
REMARK  8 active torsions:
REMARK  status: ('A' for Active; 'I' for Inactive)
REMARK    1  A    between atoms: _5  and  _11
REMARK    2  A    between atoms: _19  and  _21
REMARK    3  A    between atoms: _22  and  _66
REMARK    4  A    between atoms: _27  and  _30
REMARK    5  A    between atoms: _32  and  _33
REMARK    6  A    between atoms: _38  and  _43
REMARK    7  A    between atoms: _43  and  _46
REMARK    8  A    between atoms: _53  and  _55
REMARK                            x       y       z     vdW  Elec       q    Type
REMARK                         _______ _______ _______ _____ _____    ______ ____
ROOT
ATOM     10  C   UNL     1      31.638 -16.101  12.766  0.00  0.00    +0.038 A 
ATOM     11  C   UNL     1      32.563 -15.438  11.920  0.00  0.00    +0.047 A 
ATOM     12  C   UNL     1      33.454 -14.411  12.438  0.00  0.00    +0.035 A 
ATOM     32  C   UNL     1      33.377 -14.086  13.823  0.00  0.00    +0.024 A 
ATOM     33  C   UNL     1      32.442 -14.749  14.697  0.00  0.00    +0.007 A 
ATOM     34  C   UNL     1      31.559 -15.761  14.192  0.00  0.00    -0.029 A 
ATOM     35  C   UNL     1      30.572 -16.435  15.174  0.00  0.00    +0.045 C 
ENDROOT
BRANCH  10   9
ATOM      4  C   UNL     1      30.626 -20.660  11.655  0.00  0.00    +0.077 A 
ATOM      5  C   UNL     1      31.872 -21.129  12.190  0.00  0.00    +0.048 A 
ATOM      6  C   UNL     1      32.747 -20.164  12.736  0.00  0.00    +0.116 A 
ATOM      7  N   UNL     1      32.394 -18.832  12.741  0.00  0.00    -0.223 NA
ATOM      8  C   UNL     1      31.186 -18.413  12.215  0.00  0.00    +0.220 A 
ATOM      9  N   UNL     1      30.806 -17.080  12.217  0.00  0.00    -0.283 N 
ATOM     36  H   UNL     1      29.910 -16.810  11.812  0.00  0.00    +0.155 HD
ATOM     37  N   UNL     1      30.332 -19.315  11.686  0.00  0.00    -0.214 NA
BRANCH   4   3
ATOM      1  C   UNL     1      28.557 -23.822  10.644  0.00  0.00    +0.020 A 
ATOM      2  C   UNL     1      29.577 -23.000  11.254  0.00  0.00    +0.013 A 
ATOM      3  C   UNL     1      29.594 -21.557  11.046  0.00  0.00    +0.019 A 
ATOM     38  C   UNL     1      28.557 -20.973  10.209  0.00  0.00    +0.120 A 
ATOM     39  N   UNL     1      27.589 -21.790   9.634  0.00  0.00    -0.263 NA
ATOM     40  C   UNL     1      27.563 -23.180   9.825  0.00  0.00    +0.111 A 
ENDBRANCH   4   3
ENDBRANCH  10   9
BRANCH  12  13
ATOM     13  N   UNL     1      34.408 -13.699  11.625  0.00  0.00    -0.281 N 
ATOM     14  C   UNL     1      34.192 -13.077  10.406  0.00  0.00    +0.248 C 
ATOM     30  O   UNL     1      33.189 -13.223   9.723  0.00  0.00    -0.270 OA
ATOM     31  H   UNL     1      35.358 -13.646  11.993  0.00  0.00    +0.155 HD
BRANCH  14  15
ATOM     15  C   UNL     1      35.249 -12.173   9.859  0.00  0.00    +0.037 A 
ATOM     16  C   UNL     1      35.933 -11.199  10.714  0.00  0.00    +0.013 A 
ATOM     17  C   UNL     1      36.937 -10.327  10.157  0.00  0.00    +0.005 A 
ATOM     18  C   UNL     1      37.265 -10.427   8.737  0.00  0.00    -0.033 A 
ATOM     28  C   UNL     1      36.575 -11.406   7.913  0.00  0.00    +0.005 A 
ATOM     29  C   UNL     1      35.590 -12.262   8.455  0.00  0.00    +0.013 A 
BRANCH  18  19
ATOM     19  C   UNL     1      38.308  -9.523   8.054  0.00  0.00    +0.119 C 
BRANCH  19  20
ATOM     20  N   UNL     1      39.709  -9.589   8.565  0.00  0.00    -0.302 NA
ATOM     21  C   UNL     1      40.621  -8.572   7.873  0.00  0.00    +0.066 C 
ATOM     22  C   UNL     1      42.078  -8.639   8.436  0.00  0.00    -0.064 C 
ATOM     23  N   UNL     1      42.623 -10.058   8.266  0.00  0.00    +0.379 N 
ATOM     24  C   UNL     1      44.013 -10.110   8.741  0.00  0.00    -0.096 C 
ATOM     25  H   UNL     1      42.629 -10.289   7.176  0.00  0.00    -0.082 HD
ATOM     26  C   UNL     1      41.721 -11.076   8.949  0.00  0.00    -0.064 C 
ATOM     27  C   UNL     1      40.268 -10.981   8.403  0.00  0.00    +0.066 C 
ENDBRANCH  19  20
ENDBRANCH  18  19
ENDBRANCH  14  15
ENDBRANCH  12  13
TORSDOF 6
ENDMDL
MODEL 5
REMARK VINA RESULT:      -7.6      3.840      8.237
REMARK  Name = C:\Users\Docking\Desktop\test protocol\1iep_ligandH.pdb
REMARK  8 active torsions:
REMARK  status: ('A' for Active; 'I' for Inactive)
REMARK    1  A    between atoms: _5  and  _11
REMARK    2  A    between atoms: _19  and  _21
REMARK    3  A    between atoms: _22  and  _66
REMARK    4  A    between atoms: _27  and  _30
REMARK    5  A    between atoms: _32  and  _33
REMARK    6  A    between atoms: _38  and  _43
REMARK    7  A    between atoms: _43  and  _46
REMARK    8  A    between atoms: _53  and  _55
REMARK                            x       y       z     vdW  Elec       q    Type
REMARK                         _______ _______ _______ _____ _____    ______ ____
ROOT
ATOM     10  C   UNL     1      37.471 -13.969   8.699  0.00  0.00    +0.038 A 
ATOM     11  C   UNL     1      36.880 -14.045   9.987  0.00  0.00    +0.047 A 
ATOM     12  C   UNL     1      35.607 -14.718  10.192  0.00  0.00    +0.035 A 
ATOM     32  C   UNL     1      34.964 -15.305   9.063  0.00  0.00    +0.024 A 
ATOM     33  C   UNL     1      35.549 -15.236   7.747  0.00  0.00    +0.007 A 
ATOM     34  C   UNL     1      36.804 -14.571   7.539  0.00  0.00    -0.029 A 
ATOM     35  C   UNL     1      37.382 -14.522   6.105  0.00  0.00    +0.045 C 
ENDROOT
BRANCH  10   9
ATOM      4  C   UNL     1      40.124  -9.978   8.430  0.00  0.00    +0.077 A 
ATOM      5  C   UNL     1      38.972  -9.133   8.550  0.00  0.00    +0.048 A 
ATOM      6  C   UNL     1      37.714  -9.764   8.672  0.00  0.00    +0.116 A 
ATOM      7  N   UNL     1      37.627 -11.140   8.673  0.00  0.00    -0.223 NA
ATOM      8  C   UNL     1      38.758 -11.926   8.554  0.00  0.00    +0.220 A 
ATOM      9  N   UNL     1      38.695 -13.311   8.560  0.00  0.00    -0.283 N 
ATOM     36  H   UNL     1      39.552 -13.855   8.462  0.00  0.00    +0.155 HD
ATOM     37  N   UNL     1      39.971 -11.347   8.434  0.00  0.00    -0.214 NA
BRANCH   4   3
ATOM      1  C   UNL     1      43.216  -7.593   8.203  0.00  0.00    +0.020 A 
ATOM      2  C   UNL     1      41.849  -8.041   8.336  0.00  0.00    +0.013 A 
ATOM      3  C   UNL     1      41.523  -9.460   8.297  0.00  0.00    +0.019 A 
ATOM     38  C   UNL     1      42.612 -10.409   8.120  0.00  0.00    +0.120 A 
ATOM     39  N   UNL     1      43.919  -9.949   7.993  0.00  0.00    -0.263 NA
ATOM     40  C   UNL     1      44.245  -8.585   8.028  0.00  0.00    +0.111 A 
ENDBRANCH   4   3
ENDBRANCH  10   9
BRANCH  12  13
ATOM     13  N   UNL     1      34.955 -14.821  11.474  0.00  0.00    -0.281 N 
ATOM     14  C   UNL     1      34.091 -13.913  12.064  0.00  0.00    +0.248 C 
ATOM     30  O   UNL     1      33.914 -12.770  11.670  0.00  0.00    -0.270 OA
ATOM     31  H   UNL     1      35.156 -15.664  12.011  0.00  0.00    +0.155 HD
BRANCH  14  15
ATOM     15  C   UNL     1      33.324 -14.332  13.277  0.00  0.00    +0.037 A 
ATOM     16  C   UNL     1      33.053 -13.391  14.367  0.00  0.00    +0.013 A 
ATOM     17  C   UNL     1      32.325 -13.824  15.533  0.00  0.00    +0.005 A 
ATOM     18  C   UNL     1      31.861 -15.207  15.614  0.00  0.00    -0.033 A 
ATOM     28  C   UNL     1      32.139 -16.119  14.516  0.00  0.00    +0.005 A 
ATOM     29  C   UNL     1      32.853 -15.697  13.372  0.00  0.00    +0.013 A 
BRANCH  18  19
ATOM     19  C   UNL     1      31.096 -15.763  16.830  0.00  0.00    +0.119 C 
BRANCH  19  20
ATOM     20  N   UNL     1      31.872 -15.973  18.088  0.00  0.00    -0.302 NA
ATOM     21  C   UNL     1      31.995 -14.686  18.909  0.00  0.00    +0.066 C 
ATOM     22  C   UNL     1      32.790 -14.929  20.233  0.00  0.00    -0.064 C 
ATOM     23  N   UNL     1      34.172 -15.493  19.899  0.00  0.00    +0.379 N 
ATOM     24  C   UNL     1      34.943 -15.669  21.138  0.00  0.00    -0.096 C 
ATOM     25  H   UNL     1      34.703 -14.738  19.273  0.00  0.00    -0.082 HD
ATOM     26  C   UNL     1      34.059 -16.772  19.080  0.00  0.00    -0.064 C 
ATOM     27  C   UNL     1      33.242 -16.526  17.781  0.00  0.00    +0.066 C 
ENDBRANCH  19  20
ENDBRANCH  18  19
ENDBRANCH  14  15
ENDBRANCH  12  13
TORSDOF 6
ENDMDL
