MODEL 1
REMARK VINA RESULT:      -8.3      0.000      0.000
REMARK  Name = C:\Users\Docking\Desktop\test protocol\1iep_ligandH.pdb
REMARK  8 active torsions:
REMARK  status: ('A' for Active; 'I' for Inactive)
REMARK    1  A    between atoms: _5  and  _11
REMARK    2  A    between atoms: _19  and  _21
REMARK    3  A    between atoms: _22  and  _66
REMARK    4  A    between atoms: _27  and  _30
REMARK    5  A    between atoms: _32  and  _33
REMARK    6  A    between atoms: _38  and  _43
REMARK    7  A    between atoms: _43  and  _46
REMARK    8  A    between atoms: _53  and  _55
REMARK                            x       y       z     vdW  Elec       q    Type
REMARK                         _______ _______ _______ _____ _____    ______ ____
ROOT
ATOM     10  C   UNL     1      40.094 -10.645   7.845  0.00  0.00    +0.038 A 
ATOM     11  C   UNL     1      40.366 -11.816   7.092  0.00  0.00    +0.047 A 
ATOM     12  C   UNL     1      39.307 -12.520   6.386  0.00  0.00    +0.035 A 
ATOM     32  C   UNL     1      37.982 -12.002   6.466  0.00  0.00    +0.024 A 
ATOM     33  C   UNL     1      37.686 -10.814   7.228  0.00  0.00    +0.007 A 
ATOM     34  C   UNL     1      38.727 -10.117   7.928  0.00  0.00    -0.029 A 
ATOM     35  C   UNL     1      38.351  -8.851   8.734  0.00  0.00    +0.045 C 
ENDROOT
BRANCH  10   9
ATOM      4  C   UNL     1      43.638  -7.413   8.022  0.00  0.00    +0.077 A 
ATOM      5  C   UNL     1      43.383  -6.973   6.681  0.00  0.00    +0.048 A 
ATOM      6  C   UNL     1      42.336  -7.609   5.977  0.00  0.00    +0.116 A 
ATOM      7  N   UNL     1      41.604  -8.609   6.580  0.00  0.00    -0.223 NA
ATOM      8  C   UNL     1      41.877  -9.011   7.874  0.00  0.00    +0.220 A 
ATOM      9  N   UNL     1      41.149 -10.009   8.503  0.00  0.00    -0.283 N 
ATOM     36  H   UNL     1      41.385 -10.282   9.457  0.00  0.00    +0.155 HD
ATOM     37  N   UNL     1      42.873  -8.420   8.567  0.00  0.00    -0.214 NA
BRANCH   4   3
ATOM      1  C   UNL     1      45.899  -4.900   9.990  0.00  0.00    +0.020 A 
ATOM      2  C   UNL     1      44.848  -5.406   9.138  0.00  0.00    +0.013 A 
ATOM      3  C   UNL     1      44.708  -6.836   8.896  0.00  0.00    +0.019 A 
ATOM     38  C   UNL     1      45.655  -7.736   9.538  0.00  0.00    +0.120 A 
ATOM     39  N   UNL     1      46.658  -7.220  10.353  0.00  0.00    -0.263 NA
ATOM     40  C   UNL     1      46.803  -5.845  10.591  0.00  0.00    +0.111 A 
ENDBRANCH   4   3
ENDBRANCH  10   9
BRANCH  12  13
ATOM     13  N   UNL     1      39.522 -13.718   5.613  0.00  0.00    -0.281 N 
ATOM     14  C   UNL     1      40.213 -14.860   5.986  0.00  0.00    +0.248 C 
ATOM     30  O   UNL     1      40.937 -14.940   6.967  0.00  0.00    -0.270 OA
ATOM     31  H   UNL     1      39.116 -13.725   4.678  0.00  0.00    +0.155 HD
BRANCH  14  15
ATOM     15  C   UNL     1      40.094 -16.085   5.138  0.00  0.00    +0.037 A 
ATOM     16  C   UNL     1      39.873 -17.404   5.735  0.00  0.00    +0.013 A 
ATOM     17  C   UNL     1      39.779 -18.572   4.895  0.00  0.00    +0.005 A 
ATOM     18  C   UNL     1      39.905 -18.424   3.447  0.00  0.00    -0.033 A 
ATOM     28  C   UNL     1      40.120 -17.103   2.881  0.00  0.00    +0.005 A 
ATOM     29  C   UNL     1      40.213 -15.956   3.701  0.00  0.00    +0.013 A 
BRANCH  18  19
ATOM     19  C   UNL     1      39.839 -19.618   2.476  0.00  0.00    +0.119 C 
BRANCH  19  20
ATOM     20  N   UNL     1      41.077 -20.437   2.314  0.00  0.00    -0.302 NA
ATOM     21  C   UNL     1      41.738 -20.215   0.951  0.00  0.00    +0.066 C 
ATOM     22  C   UNL     1      43.045 -21.062   0.807  0.00  0.00    -0.064 C 
ATOM     23  N   UNL     1      42.715 -22.542   1.015  0.00  0.00    +0.379 N 
ATOM     24  C   UNL     1      43.930 -23.347   0.823  0.00  0.00    -0.096 C 
ATOM     25  H   UNL     1      41.984 -22.839   0.227  0.00  0.00    -0.082 HD
ATOM     26  C   UNL     1      42.055 -22.771   2.367  0.00  0.00    -0.064 C 
ATOM     27  C   UNL     1      40.774 -21.902   2.511  0.00  0.00    +0.066 C 
ENDBRANCH  19  20
ENDBRANCH  18  19
ENDBRANCH  14  15
ENDBRANCH  12  13
TORSDOF 6
ENDMDL
MODEL 2
REMARK VINA RESULT:      -8.3      1.499      2.244
REMARK  Name = C:\Users\Docking\Desktop\test protocol\1iep_ligandH.pdb
REMARK  8 active torsions:
REMARK  status: ('A' for Active; 'I' for Inactive)
REMARK    1  A    between atoms: _5  and  _11
REMARK    2  A    between atoms: _19  and  _21
REMARK    3  A    between atoms: _22  and  _66
REMARK    4  A    between atoms: _27  and  _30
REMARK    5  A    between atoms: _32  and  _33
REMARK    6  A    between atoms: _38  and  _43
REMARK    7  A    between atoms: _43  and  _46
REMARK    8  A    between atoms: _53  and  _55
REMARK                            x       y       z     vdW  Elec       q    Type
REMARK                         _______ _______ _______ _____ _____    ______ ____
ROOT
ATOM     10  C   UNL     1      40.044 -10.801   7.799  0.00  0.00    +0.038 A 
ATOM     11  C   UNL     1      40.293 -11.969   7.034  0.00  0.00    +0.047 A 
ATOM     12  C   UNL     1      39.215 -12.661   6.343  0.00  0.00    +0.035 A 
ATOM     32  C   UNL     1      37.896 -12.133   6.451  0.00  0.00    +0.024 A 
ATOM     33  C   UNL     1      37.624 -10.947   7.225  0.00  0.00    +0.007 A 
ATOM     34  C   UNL     1      38.683 -10.262   7.911  0.00  0.00    -0.029 A 
ATOM     35  C   UNL     1      38.333  -8.999   8.731  0.00  0.00    +0.045 C 
ENDROOT
BRANCH  10   9
ATOM      4  C   UNL     1      43.533  -7.510   7.983  0.00  0.00    +0.077 A 
ATOM      5  C   UNL     1      43.209  -7.008   6.679  0.00  0.00    +0.048 A 
ATOM      6  C   UNL     1      42.143  -7.629   5.991  0.00  0.00    +0.116 A 
ATOM      7  N   UNL     1      41.458  -8.673   6.573  0.00  0.00    -0.223 NA
ATOM      8  C   UNL     1      41.796  -9.134   7.832  0.00  0.00    +0.220 A 
ATOM      9  N   UNL     1      41.116 -10.177   8.441  0.00  0.00    -0.283 N 
ATOM     36  H   UNL     1      41.401 -10.493   9.367  0.00  0.00    +0.155 HD
ATOM     37  N   UNL     1      42.812  -8.559   8.509  0.00  0.00    -0.214 NA
BRANCH   4   3
ATOM      1  C   UNL     1      45.879  -5.046   9.914  0.00  0.00    +0.020 A 
ATOM      2  C   UNL     1      44.801  -5.529   9.082  0.00  0.00    +0.013 A 
ATOM      3  C   UNL     1      44.631  -6.956   8.837  0.00  0.00    +0.019 A 
ATOM     38  C   UNL     1      45.575  -7.875   9.455  0.00  0.00    +0.120 A 
ATOM     39  N   UNL     1      46.604  -7.381  10.250  0.00  0.00    -0.263 NA
ATOM     40  C   UNL     1      46.779  -6.010  10.492  0.00  0.00    +0.111 A 
ENDBRANCH   4   3
ENDBRANCH  10   9
BRANCH  12  13
ATOM     13  N   UNL     1      39.406 -13.855   5.559  0.00  0.00    -0.281 N 
ATOM     14  C   UNL     1      40.582 -14.328   5.001  0.00  0.00    +0.248 C 
ATOM     30  O   UNL     1      41.615 -13.680   4.911  0.00  0.00    -0.270 OA
ATOM     31  H   UNL     1      38.573 -14.421   5.396  0.00  0.00    +0.155 HD
BRANCH  14  15
ATOM     15  C   UNL     1      40.612 -15.717   4.449  0.00  0.00    +0.037 A 
ATOM     16  C   UNL     1      41.423 -16.765   5.074  0.00  0.00    +0.013 A 
ATOM     17  C   UNL     1      41.448 -18.093   4.512  0.00  0.00    +0.005 A 
ATOM     18  C   UNL     1      40.656 -18.379   3.318  0.00  0.00    -0.033 A 
ATOM     28  C   UNL     1      39.857 -17.322   2.721  0.00  0.00    +0.005 A 
ATOM     29  C   UNL     1      39.831 -16.020   3.269  0.00  0.00    +0.013 A 
BRANCH  18  19
ATOM     19  C   UNL     1      40.639 -19.761   2.638  0.00  0.00    +0.119 C 
BRANCH  19  20
ATOM     20  N   UNL     1      39.978 -20.878   3.376  0.00  0.00    -0.302 NA
ATOM     21  C   UNL     1      39.618 -22.044   2.451  0.00  0.00    +0.066 C 
ATOM     22  C   UNL     1      38.948 -23.213   3.244  0.00  0.00    -0.064 C 
ATOM     23  N   UNL     1      37.704 -22.690   3.964  0.00  0.00    +0.379 N 
ATOM     24  C   UNL     1      37.039 -23.799   4.663  0.00  0.00    -0.096 C 
ATOM     25  H   UNL     1      37.000 -22.308   3.189  0.00  0.00    -0.082 HD
ATOM     26  C   UNL     1      38.052 -21.528   4.884  0.00  0.00    -0.064 C 
ATOM     27  C   UNL     1      38.744 -20.384   4.091  0.00  0.00    +0.066 C 
ENDBRANCH  19  20
ENDBRANCH  18  19
ENDBRANCH  14  15
ENDBRANCH  12  13
TORSDOF 6
ENDMDL
MODEL 3
REMARK VINA RESULT:      -8.2     22.801     25.166
REMARK  Name = C:\Users\Docking\Desktop\test protocol\1iep_ligandH.pdb
REMARK  8 active torsions:
REMARK  status: ('A' for Active; 'I' for Inactive)
REMARK    1  A    between atoms: _5  and  _11
REMARK    2  A    between atoms: _19  and  _21
REMARK    3  A    between atoms: _22  and  _66
REMARK    4  A    between atoms: _27  and  _30
REMARK    5  A    between atoms: _32  and  _33
REMARK    6  A    between atoms: _38  and  _43
REMARK    7  A    between atoms: _43  and  _46
REMARK    8  A    between atoms: _53  and  _55
REMARK                            x       y       z     vdW  Elec       q    Type
REMARK                         _______ _______ _______ _____ _____    ______ ____
ROOT
ATOM     10  C   UNL     1      25.866  -1.376  -9.865  0.00  0.00    +0.038 A 
ATOM     11  C   UNL     1      25.389  -1.830  -8.609  0.00  0.00    +0.047 A 
ATOM     12  C   UNL     1      24.044  -2.365  -8.463  0.00  0.00    +0.035 A 
ATOM     32  C   UNL     1      23.212  -2.425  -9.619  0.00  0.00    +0.024 A 
ATOM     33  C   UNL     1      23.681  -1.967 -10.904  0.00  0.00    +0.007 A 
ATOM     34  C   UNL     1      25.006  -1.436 -11.053  0.00  0.00    -0.029 A 
ATOM     35  C   UNL     1      25.453  -0.953 -12.452  0.00  0.00    +0.045 C 
ENDROOT
BRANCH  10   9
ATOM      4  C   UNL     1      29.128   2.064  -9.111  0.00  0.00    +0.077 A 
ATOM      5  C   UNL     1      28.154   2.941  -8.528  0.00  0.00    +0.048 A 
ATOM      6  C   UNL     1      26.824   2.472  -8.447  0.00  0.00    +0.116 A 
ATOM      7  N   UNL     1      26.503   1.218  -8.917  0.00  0.00    -0.223 NA
ATOM      8  C   UNL     1      27.465   0.397  -9.475  0.00  0.00    +0.220 A 
ATOM      9  N   UNL     1      27.166  -0.872  -9.947  0.00  0.00    -0.283 N 
ATOM     36  H   UNL     1      27.903  -1.444 -10.359  0.00  0.00    +0.155 HD
ATOM     37  N   UNL     1      28.743   0.822  -9.565  0.00  0.00    -0.214 NA
BRANCH   4   3
ATOM      1  C   UNL     1      33.031   1.836  -9.239  0.00  0.00    +0.020 A 
ATOM      2  C   UNL     1      31.649   1.446  -9.079  0.00  0.00    +0.013 A 
ATOM      3  C   UNL     1      30.575   2.414  -9.264  0.00  0.00    +0.019 A 
ATOM     38  C   UNL     1      30.937   3.780  -9.612  0.00  0.00    +0.120 A 
ATOM     39  N   UNL     1      32.276   4.127  -9.758  0.00  0.00    -0.263 NA
ATOM     40  C   UNL     1      33.318   3.204  -9.581  0.00  0.00    +0.111 A 
ENDBRANCH   4   3
ENDBRANCH  10   9
BRANCH  12  13
ATOM     13  N   UNL     1      23.502  -2.833  -7.212  0.00  0.00    -0.281 N 
ATOM     14  C   UNL     1      23.765  -4.029  -6.565  0.00  0.00    +0.248 C 
ATOM     30  O   UNL     1      24.347  -4.977  -7.072  0.00  0.00    -0.270 OA
ATOM     31  H   UNL     1      22.845  -2.207  -6.747  0.00  0.00    +0.155 HD
BRANCH  14  15
ATOM     15  C   UNL     1      23.302  -4.204  -5.154  0.00  0.00    +0.037 A 
ATOM     16  C   UNL     1      24.205  -4.705  -4.115  0.00  0.00    +0.013 A 
ATOM     17  C   UNL     1      23.728  -4.881  -2.766  0.00  0.00    +0.005 A 
ATOM     18  C   UNL     1      22.340  -4.552  -2.448  0.00  0.00    -0.033 A 
ATOM     28  C   UNL     1      21.468  -4.052  -3.498  0.00  0.00    +0.005 A 
ATOM     29  C   UNL     1      21.931  -3.880  -4.821  0.00  0.00    +0.013 A 
BRANCH  18  19
ATOM     19  C   UNL     1      21.740  -4.728  -1.041  0.00  0.00    +0.119 C 
BRANCH  19  20
ATOM     20  N   UNL     1      21.202  -3.507  -0.370  0.00  0.00    -0.302 NA
ATOM     21  C   UNL     1      22.260  -2.407  -0.246  0.00  0.00    +0.066 C 
ATOM     22  C   UNL     1      21.674  -1.129   0.439  0.00  0.00    -0.064 C 
ATOM     23  N   UNL     1      21.116  -1.500   1.813  0.00  0.00    +0.379 N 
ATOM     24  C   UNL     1      20.617  -0.291   2.483  0.00  0.00    -0.096 C 
ATOM     25  H   UNL     1      21.958  -1.902   2.423  0.00  0.00    -0.082 HD
ATOM     26  C   UNL     1      20.065  -2.596   1.700  0.00  0.00    -0.064 C 
ATOM     27  C   UNL     1      20.649  -3.850   0.992  0.00  0.00    +0.066 C 
ENDBRANCH  19  20
ENDBRANCH  18  19
ENDBRANCH  14  15
ENDBRANCH  12  13
TORSDOF 6
ENDMDL
MODEL 4
REMARK VINA RESULT:      -7.9     22.331     25.779
REMARK  Name = C:\Users\Docking\Desktop\test protocol\1iep_ligandH.pdb
REMARK  8 active torsions:
REMARK  status: ('A' for Active; 'I' for Inactive)
REMARK    1  A    between atoms: _5  and  _11
REMARK    2  A    between atoms: _19  and  _21
REMARK    3  A    between atoms: _22  and  _66
REMARK    4  A    between atoms: _27  and  _30
REMARK    5  A    between atoms: _32  and  _33
REMARK    6  A    between atoms: _38  and  _43
REMARK    7  A    between atoms: _43  and  _46
REMARK    8  A    between atoms: _53  and  _55
REMARK                            x       y       z     vdW  Elec       q    Type
REMARK                         _______ _______ _______ _____ _____    ______ ____
ROOT
ATOM     10  C   UNL     1      25.050   1.638  -3.713  0.00  0.00    +0.038 A 
ATOM     11  C   UNL     1      26.200   1.558  -4.539  0.00  0.00    +0.047 A 
ATOM     12  C   UNL     1      26.567   2.650  -5.427  0.00  0.00    +0.035 A 
ATOM     32  C   UNL     1      25.740   3.811  -5.447  0.00  0.00    +0.024 A 
ATOM     33  C   UNL     1      24.566   3.909  -4.615  0.00  0.00    +0.007 A 
ATOM     34  C   UNL     1      24.199   2.834  -3.739  0.00  0.00    -0.029 A 
ATOM     35  C   UNL     1      22.926   2.991  -2.874  0.00  0.00    +0.045 C 
ENDROOT
BRANCH  10   9
ATOM      4  C   UNL     1      22.739  -2.461  -2.767  0.00  0.00    +0.077 A 
ATOM      5  C   UNL     1      22.061  -2.439  -4.031  0.00  0.00    +0.048 A 
ATOM      6  C   UNL     1      22.329  -1.352  -4.892  0.00  0.00    +0.116 A 
ATOM      7  N   UNL     1      23.212  -0.366  -4.509  0.00  0.00    -0.223 NA
ATOM      8  C   UNL     1      23.848  -0.416  -3.282  0.00  0.00    +0.220 A 
ATOM      9  N   UNL     1      24.745   0.560  -2.879  0.00  0.00    -0.283 N 
ATOM     36  H   UNL     1      25.188   0.491  -1.963  0.00  0.00    +0.155 HD
ATOM     37  N   UNL     1      23.608  -1.443  -2.440  0.00  0.00    -0.214 NA
BRANCH   4   3
ATOM      1  C   UNL     1      21.820  -4.394   0.507  0.00  0.00    +0.020 A 
ATOM      2  C   UNL     1      21.967  -3.313  -0.440  0.00  0.00    +0.013 A 
ATOM      3  C   UNL     1      22.563  -3.545  -1.749  0.00  0.00    +0.019 A 
ATOM     38  C   UNL     1      23.001  -4.894  -2.073  0.00  0.00    +0.120 A 
ATOM     39  N   UNL     1      22.848  -5.916  -1.142  0.00  0.00    -0.263 NA
ATOM     40  C   UNL     1      22.278  -5.704   0.123  0.00  0.00    +0.111 A 
ENDBRANCH   4   3
ENDBRANCH  10   9
BRANCH  12  13
ATOM     13  N   UNL     1      27.718   2.621  -6.294  0.00  0.00    -0.281 N 
ATOM     14  C   UNL     1      27.752   2.374  -7.657  0.00  0.00    +0.248 C 
ATOM     30  O   UNL     1      26.816   1.927  -8.302  0.00  0.00    -0.270 OA
ATOM     31  H   UNL     1      28.618   2.806  -5.850  0.00  0.00    +0.155 HD
BRANCH  14  15
ATOM     15  C   UNL     1      29.014   2.651  -8.410  0.00  0.00    +0.037 A 
ATOM     16  C   UNL     1      30.072   1.643  -8.515  0.00  0.00    +0.013 A 
ATOM     17  C   UNL     1      31.286   1.941  -9.232  0.00  0.00    +0.005 A 
ATOM     18  C   UNL     1      31.447   3.254  -9.852  0.00  0.00    -0.033 A 
ATOM     28  C   UNL     1      30.379   4.234  -9.736  0.00  0.00    +0.005 A 
ATOM     29  C   UNL     1      29.188   3.945  -9.033  0.00  0.00    +0.013 A 
BRANCH  18  19
ATOM     19  C   UNL     1      32.718   3.667 -10.619  0.00  0.00    +0.119 C 
BRANCH  19  20
ATOM     20  N   UNL     1      33.574   4.725 -10.004  0.00  0.00    -0.302 NA
ATOM     21  C   UNL     1      35.061   4.363 -10.057  0.00  0.00    +0.066 C 
ATOM     22  C   UNL     1      35.944   5.490  -9.430  0.00  0.00    -0.064 C 
ATOM     23  N   UNL     1      35.499   5.741  -7.988  0.00  0.00    +0.379 N 
ATOM     24  C   UNL     1      36.365   6.760  -7.377  0.00  0.00    -0.096 C 
ATOM     25  H   UNL     1      35.641   4.791  -7.421  0.00  0.00    -0.082 HD
ATOM     26  C   UNL     1      34.021   6.099  -7.926  0.00  0.00    -0.064 C 
ATOM     27  C   UNL     1      33.155   4.985  -8.578  0.00  0.00    +0.066 C 
ENDBRANCH  19  20
ENDBRANCH  18  19
ENDBRANCH  14  15
ENDBRANCH  12  13
TORSDOF 6
ENDMDL
MODEL 5
REMARK VINA RESULT:      -7.8     23.347     26.973
REMARK  Name = C:\Users\Docking\Desktop\test protocol\1iep_ligandH.pdb
REMARK  8 active torsions:
REMARK  status: ('A' for Active; 'I' for Inactive)
REMARK    1  A    between atoms: _5  and  _11
REMARK    2  A    between atoms: _19  and  _21
REMARK    3  A    between atoms: _22  and  _66
REMARK    4  A    between atoms: _27  and  _30
REMARK    5  A    between atoms: _32  and  _33
REMARK    6  A    between atoms: _38  and  _43
REMARK    7  A    between atoms: _43  and  _46
REMARK    8  A    between atoms: _53  and  _55
REMARK                            x       y       z     vdW  Elec       q    Type
REMARK                         _______ _______ _______ _____ _____    ______ ____
ROOT
ATOM     10  C   UNL     1      26.399  -1.379 -10.479  0.00  0.00    +0.038 A 
ATOM     11  C   UNL     1      27.597  -0.638 -10.308  0.00  0.00    +0.047 A 
ATOM     12  C   UNL     1      28.144   0.167 -11.389  0.00  0.00    +0.035 A 
ATOM     32  C   UNL     1      27.444   0.198 -12.630  0.00  0.00    +0.024 A 
ATOM     33  C   UNL     1      26.226  -0.550 -12.822  0.00  0.00    +0.007 A 
ATOM     34  C   UNL     1      25.683  -1.349 -11.760  0.00  0.00    -0.029 A 
ATOM     35  C   UNL     1      24.378  -2.135 -12.024  0.00  0.00    +0.045 C 
ENDROOT
BRANCH  10   9
ATOM      4  C   UNL     1      23.621  -1.947  -6.607  0.00  0.00    +0.077 A 
ATOM      5  C   UNL     1      23.102  -0.613  -6.711  0.00  0.00    +0.048 A 
ATOM      6  C   UNL     1      23.582   0.189  -7.770  0.00  0.00    +0.116 A 
ATOM      7  N   UNL     1      24.510  -0.316  -8.655  0.00  0.00    -0.223 NA
ATOM      8  C   UNL     1      24.991  -1.606  -8.526  0.00  0.00    +0.220 A 
ATOM      9  N   UNL     1      25.919  -2.136  -9.408  0.00  0.00    -0.283 N 
ATOM     36  H   UNL     1      26.255  -3.090  -9.274  0.00  0.00    +0.155 HD
ATOM     37  N   UNL     1      24.550  -2.391  -7.521  0.00  0.00    -0.214 NA
BRANCH   4   3
ATOM      1  C   UNL     1      21.967  -3.529  -3.435  0.00  0.00    +0.020 A 
ATOM      2  C   UNL     1      22.335  -2.554  -4.436  0.00  0.00    +0.013 A 
ATOM      3  C   UNL     1      23.210  -2.917  -5.543  0.00  0.00    +0.019 A 
ATOM     38  C   UNL     1      23.699  -4.286  -5.610  0.00  0.00    +0.120 A 
ATOM     39  N   UNL     1      23.329  -5.203  -4.631  0.00  0.00    -0.263 NA
ATOM     40  C   UNL     1      22.489  -4.864  -3.559  0.00  0.00    +0.111 A 
ENDBRANCH   4   3
ENDBRANCH  10   9
BRANCH  12  13
ATOM     13  N   UNL     1      29.359   0.934 -11.276  0.00  0.00    -0.281 N 
ATOM     14  C   UNL     1      29.501   2.251 -10.868  0.00  0.00    +0.248 C 
ATOM     30  O   UNL     1      28.576   3.039 -10.741  0.00  0.00    -0.270 OA
ATOM     31  H   UNL     1      30.220   0.448 -11.528  0.00  0.00    +0.155 HD
BRANCH  14  15
ATOM     15  C   UNL     1      30.871   2.771 -10.572  0.00  0.00    +0.037 A 
ATOM     16  C   UNL     1      31.752   2.092  -9.619  0.00  0.00    +0.013 A 
ATOM     17  C   UNL     1      33.062   2.625  -9.339  0.00  0.00    +0.005 A 
ATOM     18  C   UNL     1      33.499   3.844 -10.015  0.00  0.00    -0.033 A 
ATOM     28  C   UNL     1      32.606   4.495 -10.959  0.00  0.00    +0.005 A 
ATOM     29  C   UNL     1      31.321   3.976 -11.235  0.00  0.00    +0.013 A 
BRANCH  18  19
ATOM     19  C   UNL     1      34.871   4.496  -9.761  0.00  0.00    +0.119 C 
BRANCH  19  20
ATOM     20  N   UNL     1      34.885   5.804  -9.041  0.00  0.00    -0.302 NA
ATOM     21  C   UNL     1      36.257   6.113  -8.437  0.00  0.00    +0.066 C 
ATOM     22  C   UNL     1      36.260   7.496  -7.707  0.00  0.00    -0.064 C 
ATOM     23  N   UNL     1      35.179   7.499  -6.625  0.00  0.00    +0.379 N 
ATOM     24  C   UNL     1      35.217   8.777  -5.898  0.00  0.00    -0.096 C 
ATOM     25  H   UNL     1      35.424   6.690  -5.899  0.00  0.00    -0.082 HD
ATOM     26  C   UNL     1      33.811   7.190  -7.216  0.00  0.00    -0.064 C 
ATOM     27  C   UNL     1      33.827   5.828  -7.965  0.00  0.00    +0.066 C 
ENDBRANCH  19  20
ENDBRANCH  18  19
ENDBRANCH  14  15
ENDBRANCH  12  13
TORSDOF 6
ENDMDL
