MODEL 1
REMARK VINA RESULT:      -9.1      0.000      0.000
REMARK  Name = C:\Users\Docking\Desktop\test protocol\1iep_ligandH.pdb
REMARK  8 active torsions:
REMARK  status: ('A' for Active; 'I' for Inactive)
REMARK    1  A    between atoms: _5  and  _11
REMARK    2  A    between atoms: _19  and  _21
REMARK    3  A    between atoms: _22  and  _66
REMARK    4  A    between atoms: _27  and  _30
REMARK    5  A    between atoms: _32  and  _33
REMARK    6  A    between atoms: _38  and  _43
REMARK    7  A    between atoms: _43  and  _46
REMARK    8  A    between atoms: _53  and  _55
REMARK                            x       y       z     vdW  Elec       q    Type
REMARK                         _______ _______ _______ _____ _____    ______ ____
ROOT
ATOM     10  C   UNL     1       9.439  25.675  19.117  0.00  0.00    +0.038 A 
ATOM     11  C   UNL     1      10.723  25.432  18.567  0.00  0.00    +0.047 A 
ATOM     12  C   UNL     1      11.314  24.103  18.593  0.00  0.00    +0.035 A 
ATOM     32  C   UNL     1      10.566  23.043  19.186  0.00  0.00    +0.024 A 
ATOM     33  C   UNL     1       9.260  23.273  19.750  0.00  0.00    +0.007 A 
ATOM     34  C   UNL     1       8.673  24.583  19.729  0.00  0.00    -0.029 A 
ATOM     35  C   UNL     1       7.272  24.773  20.355  0.00  0.00    +0.045 C 
ENDROOT
BRANCH  10   9
ATOM      4  C   UNL     1       8.423  29.913  21.128  0.00  0.00    +0.077 A 
ATOM      5  C   UNL     1       8.945  29.502  22.399  0.00  0.00    +0.048 A 
ATOM      6  C   UNL     1       9.459  28.189  22.495  0.00  0.00    +0.116 A 
ATOM      7  N   UNL     1       9.448  27.359  21.396  0.00  0.00    -0.223 NA
ATOM      8  C   UNL     1       8.935  27.787  20.185  0.00  0.00    +0.220 A 
ATOM      9  N   UNL     1       8.920  26.971  19.064  0.00  0.00    -0.283 N 
ATOM     36  H   UNL     1       8.527  27.321  18.191  0.00  0.00    +0.155 HD
ATOM     37  N   UNL     1       8.437  29.035  20.067  0.00  0.00    -0.214 NA
BRANCH   4   3
ATOM      1  C   UNL     1       6.260  33.163  21.381  0.00  0.00    +0.020 A 
ATOM      2  C   UNL     1       6.780  31.847  21.675  0.00  0.00    +0.013 A 
ATOM      3  C   UNL     1       7.848  31.271  20.867  0.00  0.00    +0.019 A 
ATOM     38  C   UNL     1       8.373  32.058  19.762  0.00  0.00    +0.120 A 
ATOM     39  N   UNL     1       7.851  33.322  19.502  0.00  0.00    -0.263 NA
ATOM     40  C   UNL     1       6.822  33.886  20.271  0.00  0.00    +0.111 A 
ENDBRANCH   4   3
ENDBRANCH  10   9
BRANCH  12  13
ATOM     13  N   UNL     1      12.617  23.797  18.058  0.00  0.00    -0.281 N 
ATOM     14  C   UNL     1      12.921  23.078  16.913  0.00  0.00    +0.248 C 
ATOM     30  O   UNL     1      12.116  22.403  16.288  0.00  0.00    -0.270 OA
ATOM     31  H   UNL     1      13.413  24.154  18.587  0.00  0.00    +0.155 HD
BRANCH  14  15
ATOM     15  C   UNL     1      14.323  23.101  16.397  0.00  0.00    +0.037 A 
ATOM     16  C   UNL     1      15.436  23.544  17.240  0.00  0.00    +0.013 A 
ATOM     17  C   UNL     1      16.777  23.572  16.712  0.00  0.00    +0.005 A 
ATOM     18  C   UNL     1      17.012  23.154  15.332  0.00  0.00    -0.033 A 
ATOM     28  C   UNL     1      15.890  22.714  14.519  0.00  0.00    +0.005 A 
ATOM     29  C   UNL     1      14.574  22.686  15.033  0.00  0.00    +0.013 A 
BRANCH  18  19
ATOM     19  C   UNL     1      18.407  23.172  14.679  0.00  0.00    +0.119 C 
BRANCH  19  20
ATOM     20  N   UNL     1      19.253  24.381  14.907  0.00  0.00    -0.302 NA
ATOM     21  C   UNL     1      18.631  25.640  14.298  0.00  0.00    +0.066 C 
ATOM     22  C   UNL     1      19.519  26.900  14.565  0.00  0.00    -0.064 C 
ATOM     23  N   UNL     1      20.920  26.661  14.001  0.00  0.00    +0.379 N 
ATOM     24  C   UNL     1      21.740  27.865  14.200  0.00  0.00    -0.096 C 
ATOM     25  H   UNL     1      20.820  26.497  12.903  0.00  0.00    -0.082 HD
ATOM     26  C   UNL     1      21.545  25.409  14.600  0.00  0.00    -0.064 C 
ATOM     27  C   UNL     1      20.641  24.168  14.354  0.00  0.00    +0.066 C 
ENDBRANCH  19  20
ENDBRANCH  18  19
ENDBRANCH  14  15
ENDBRANCH  12  13
TORSDOF 6
ENDMDL
MODEL 2
REMARK VINA RESULT:      -8.9      3.667      7.705
REMARK  Name = C:\Users\Docking\Desktop\test protocol\1iep_ligandH.pdb
REMARK  8 active torsions:
REMARK  status: ('A' for Active; 'I' for Inactive)
REMARK    1  A    between atoms: _5  and  _11
REMARK    2  A    between atoms: _19  and  _21
REMARK    3  A    between atoms: _22  and  _66
REMARK    4  A    between atoms: _27  and  _30
REMARK    5  A    between atoms: _32  and  _33
REMARK    6  A    between atoms: _38  and  _43
REMARK    7  A    between atoms: _43  and  _46
REMARK    8  A    between atoms: _53  and  _55
REMARK                            x       y       z     vdW  Elec       q    Type
REMARK                         _______ _______ _______ _____ _____    ______ ____
ROOT
ATOM     10  C   UNL     1      15.220  23.208  15.129  0.00  0.00    +0.038 A 
ATOM     11  C   UNL     1      16.376  24.030  15.152  0.00  0.00    +0.047 A 
ATOM     12  C   UNL     1      17.642  23.563  14.610  0.00  0.00    +0.035 A 
ATOM     32  C   UNL     1      17.695  22.254  14.048  0.00  0.00    +0.024 A 
ATOM     33  C   UNL     1      16.530  21.405  14.018  0.00  0.00    +0.007 A 
ATOM     34  C   UNL     1      15.279  21.859  14.554  0.00  0.00    -0.029 A 
ATOM     35  C   UNL     1      14.064  20.903  14.500  0.00  0.00    +0.045 C 
ENDROOT
BRANCH  10   9
ATOM      4  C   UNL     1      12.218  23.966  18.797  0.00  0.00    +0.077 A 
ATOM      5  C   UNL     1      13.081  23.287  19.720  0.00  0.00    +0.048 A 
ATOM      6  C   UNL     1      14.284  22.751  19.210  0.00  0.00    +0.116 A 
ATOM      7  N   UNL     1      14.592  22.890  17.874  0.00  0.00    -0.223 NA
ATOM      8  C   UNL     1      13.737  23.549  17.010  0.00  0.00    +0.220 A 
ATOM      9  N   UNL     1      14.030  23.707  15.664  0.00  0.00    -0.283 N 
ATOM     36  H   UNL     1      13.370  24.193  15.058  0.00  0.00    +0.155 HD
ATOM     37  N   UNL     1      12.581  24.069  17.472  0.00  0.00    -0.214 NA
BRANCH   4   3
ATOM      1  C   UNL     1       9.123  26.352  18.960  0.00  0.00    +0.020 A 
ATOM      2  C   UNL     1      10.389  25.791  18.548  0.00  0.00    +0.013 A 
ATOM      3  C   UNL     1      10.913  24.589  19.185  0.00  0.00    +0.019 A 
ATOM     38  C   UNL     1      10.125  23.974  20.243  0.00  0.00    +0.120 A 
ATOM     39  N   UNL     1       8.910  24.538  20.619  0.00  0.00    -0.263 NA
ATOM     40  C   UNL     1       8.396  25.695  20.015  0.00  0.00    +0.111 A 
ENDBRANCH   4   3
ENDBRANCH  10   9
BRANCH  12  13
ATOM     13  N   UNL     1      18.851  24.349  14.613  0.00  0.00    -0.281 N 
ATOM     14  C   UNL     1      18.990  25.698  14.326  0.00  0.00    +0.248 C 
ATOM     30  O   UNL     1      18.122  26.388  13.812  0.00  0.00    -0.270 OA
ATOM     31  H   UNL     1      19.707  23.852  14.856  0.00  0.00    +0.155 HD
BRANCH  14  15
ATOM     15  C   UNL     1      20.285  26.373  14.642  0.00  0.00    +0.037 A 
ATOM     16  C   UNL     1      20.344  27.808  14.930  0.00  0.00    +0.013 A 
ATOM     17  C   UNL     1      21.609  28.438  15.215  0.00  0.00    +0.005 A 
ATOM     18  C   UNL     1      22.827  27.631  15.214  0.00  0.00    -0.033 A 
ATOM     28  C   UNL     1      22.739  26.208  14.930  0.00  0.00    +0.005 A 
ATOM     29  C   UNL     1      21.501  25.588  14.649  0.00  0.00    +0.013 A 
BRANCH  18  19
ATOM     19  C   UNL     1      24.222  28.223  15.487  0.00  0.00    +0.119 C 
BRANCH  19  20
ATOM     20  N   UNL     1      25.330  27.261  15.769  0.00  0.00    -0.302 NA
ATOM     21  C   UNL     1      25.455  26.951  17.263  0.00  0.00    +0.066 C 
ATOM     22  C   UNL     1      26.603  25.926  17.537  0.00  0.00    -0.064 C 
ATOM     23  N   UNL     1      27.919  26.479  16.987  0.00  0.00    +0.379 N 
ATOM     24  C   UNL     1      29.011  25.545  17.294  0.00  0.00    -0.096 C 
ATOM     25  H   UNL     1      28.132  27.436  17.519  0.00  0.00    -0.082 HD
ATOM     26  C   UNL     1      27.802  26.793  15.502  0.00  0.00    -0.064 C 
ATOM     27  C   UNL     1      26.639  27.790  15.237  0.00  0.00    +0.066 C 
ENDBRANCH  19  20
ENDBRANCH  18  19
ENDBRANCH  14  15
ENDBRANCH  12  13
TORSDOF 6
ENDMDL
MODEL 3
REMARK VINA RESULT:      -8.8      4.285     13.074
REMARK  Name = C:\Users\Docking\Desktop\test protocol\1iep_ligandH.pdb
REMARK  8 active torsions:
REMARK  status: ('A' for Active; 'I' for Inactive)
REMARK    1  A    between atoms: _5  and  _11
REMARK    2  A    between atoms: _19  and  _21
REMARK    3  A    between atoms: _22  and  _66
REMARK    4  A    between atoms: _27  and  _30
REMARK    5  A    between atoms: _32  and  _33
REMARK    6  A    between atoms: _38  and  _43
REMARK    7  A    between atoms: _43  and  _46
REMARK    8  A    between atoms: _53  and  _55
REMARK                            x       y       z     vdW  Elec       q    Type
REMARK                         _______ _______ _______ _____ _____    ______ ____
ROOT
ATOM     10  C   UNL     1      10.553  27.334  20.858  0.00  0.00    +0.038 A 
ATOM     11  C   UNL     1       9.980  28.452  20.200  0.00  0.00    +0.047 A 
ATOM     12  C   UNL     1       9.110  29.378  20.908  0.00  0.00    +0.035 A 
ATOM     32  C   UNL     1       8.847  29.136  22.288  0.00  0.00    +0.024 A 
ATOM     33  C   UNL     1       9.420  28.005  22.972  0.00  0.00    +0.007 A 
ATOM     34  C   UNL     1      10.277  27.087  22.278  0.00  0.00    -0.029 A 
ATOM     35  C   UNL     1      10.859  25.886  23.061  0.00  0.00    +0.045 C 
ENDROOT
BRANCH  10   9
ATOM      4  C   UNL     1      11.246  23.612  17.908  0.00  0.00    +0.077 A 
ATOM      5  C   UNL     1       9.841  23.334  17.833  0.00  0.00    +0.048 A 
ATOM      6  C   UNL     1       8.974  24.168  18.574  0.00  0.00    +0.116 A 
ATOM      7  N   UNL     1       9.485  25.201  19.330  0.00  0.00    -0.223 NA
ATOM      8  C   UNL     1      10.846  25.440  19.382  0.00  0.00    +0.220 A 
ATOM      9  N   UNL     1      11.382  26.478  20.130  0.00  0.00    -0.283 N 
ATOM     36  H   UNL     1      12.392  26.617  20.148  0.00  0.00    +0.155 HD
ATOM     37  N   UNL     1      11.695  24.657  18.684  0.00  0.00    -0.214 NA
BRANCH   4   3
ATOM      1  C   UNL     1      13.905  22.475  15.274  0.00  0.00    +0.020 A 
ATOM      2  C   UNL     1      12.902  23.276  15.937  0.00  0.00    +0.013 A 
ATOM      3  C   UNL     1      12.288  22.822  17.179  0.00  0.00    +0.019 A 
ATOM     38  C   UNL     1      12.715  21.544  17.727  0.00  0.00    +0.120 A 
ATOM     39  N   UNL     1      13.682  20.793  17.065  0.00  0.00    -0.263 NA
ATOM     40  C   UNL     1      14.278  21.219  15.869  0.00  0.00    +0.111 A 
ENDBRANCH   4   3
ENDBRANCH  10   9
BRANCH  12  13
ATOM     13  N   UNL     1       8.493  30.525  20.290  0.00  0.00    -0.281 N 
ATOM     14  C   UNL     1       7.571  31.399  20.844  0.00  0.00    +0.248 C 
ATOM     30  O   UNL     1       6.973  31.199  21.891  0.00  0.00    -0.270 OA
ATOM     31  H   UNL     1       8.770  30.717  19.327  0.00  0.00    +0.155 HD
BRANCH  14  15
ATOM     15  C   UNL     1       7.258  32.670  20.124  0.00  0.00    +0.037 A 
ATOM     16  C   UNL     1       5.877  33.135  19.968  0.00  0.00    +0.013 A 
ATOM     17  C   UNL     1       5.602  34.357  19.254  0.00  0.00    +0.005 A 
ATOM     18  C   UNL     1       6.711  35.123  18.692  0.00  0.00    -0.033 A 
ATOM     28  C   UNL     1       8.071  34.642  18.866  0.00  0.00    +0.005 A 
ATOM     29  C   UNL     1       8.345  33.445  19.564  0.00  0.00    +0.013 A 
BRANCH  18  19
ATOM     19  C   UNL     1       6.508  36.427  17.897  0.00  0.00    +0.119 C 
BRANCH  19  20
ATOM     20  N   UNL     1       5.628  37.469  18.505  0.00  0.00    -0.302 NA
ATOM     21  C   UNL     1       5.666  38.783  17.720  0.00  0.00    +0.066 C 
ATOM     22  C   UNL     1       4.723  39.855  18.358  0.00  0.00    -0.064 C 
ATOM     23  N   UNL     1       5.127  40.083  19.815  0.00  0.00    +0.379 N 
ATOM     24  C   UNL     1       4.279  41.132  20.400  0.00  0.00    -0.096 C 
ATOM     25  H   UNL     1       6.178  40.455  19.821  0.00  0.00    -0.082 HD
ATOM     26  C   UNL     1       5.094  38.781  20.603  0.00  0.00    -0.064 C 
ATOM     27  C   UNL     1       6.012  37.713  19.944  0.00  0.00    +0.066 C 
ENDBRANCH  19  20
ENDBRANCH  18  19
ENDBRANCH  14  15
ENDBRANCH  12  13
TORSDOF 6
ENDMDL
MODEL 4
REMARK VINA RESULT:      -8.8      1.578      2.459
REMARK  Name = C:\Users\Docking\Desktop\test protocol\1iep_ligandH.pdb
REMARK  8 active torsions:
REMARK  status: ('A' for Active; 'I' for Inactive)
REMARK    1  A    between atoms: _5  and  _11
REMARK    2  A    between atoms: _19  and  _21
REMARK    3  A    between atoms: _22  and  _66
REMARK    4  A    between atoms: _27  and  _30
REMARK    5  A    between atoms: _32  and  _33
REMARK    6  A    between atoms: _38  and  _43
REMARK    7  A    between atoms: _43  and  _46
REMARK    8  A    between atoms: _53  and  _55
REMARK                            x       y       z     vdW  Elec       q    Type
REMARK                         _______ _______ _______ _____ _____    ______ ____
ROOT
ATOM     10  C   UNL     1       9.365  25.743  19.273  0.00  0.00    +0.038 A 
ATOM     11  C   UNL     1      10.682  25.505  18.803  0.00  0.00    +0.047 A 
ATOM     12  C   UNL     1      11.272  24.177  18.856  0.00  0.00    +0.035 A 
ATOM     32  C   UNL     1      10.491  23.112  19.392  0.00  0.00    +0.024 A 
ATOM     33  C   UNL     1       9.152  23.335  19.876  0.00  0.00    +0.007 A 
ATOM     34  C   UNL     1       8.565  24.644  19.829  0.00  0.00    -0.029 A 
ATOM     35  C   UNL     1       7.127  24.827  20.367  0.00  0.00    +0.045 C 
ENDROOT
BRANCH  10   9
ATOM      4  C   UNL     1       8.338  30.009  21.218  0.00  0.00    +0.077 A 
ATOM      5  C   UNL     1       8.850  29.615  22.498  0.00  0.00    +0.048 A 
ATOM      6  C   UNL     1       9.362  28.303  22.617  0.00  0.00    +0.116 A 
ATOM      7  N   UNL     1       9.358  27.458  21.529  0.00  0.00    -0.223 NA
ATOM      8  C   UNL     1       8.855  27.869  20.308  0.00  0.00    +0.220 A 
ATOM      9  N   UNL     1       8.848  27.038  19.198  0.00  0.00    -0.283 N 
ATOM     36  H   UNL     1       8.461  27.376  18.318  0.00  0.00    +0.155 HD
ATOM     37  N   UNL     1       8.359  29.116  20.170  0.00  0.00    -0.214 NA
BRANCH   4   3
ATOM      1  C   UNL     1       6.168  33.258  21.402  0.00  0.00    +0.020 A 
ATOM      2  C   UNL     1       6.684  31.946  21.717  0.00  0.00    +0.013 A 
ATOM      3  C   UNL     1       7.766  31.363  20.934  0.00  0.00    +0.019 A 
ATOM     38  C   UNL     1       8.308  32.140  19.830  0.00  0.00    +0.120 A 
ATOM     39  N   UNL     1       7.790  33.400  19.548  0.00  0.00    -0.263 NA
ATOM     40  C   UNL     1       6.748  33.971  20.294  0.00  0.00    +0.111 A 
ENDBRANCH   4   3
ENDBRANCH  10   9
BRANCH  12  13
ATOM     13  N   UNL     1      12.607  23.878  18.400  0.00  0.00    -0.281 N 
ATOM     14  C   UNL     1      12.985  23.247  17.226  0.00  0.00    +0.248 C 
ATOM     30  O   UNL     1      12.218  22.651  16.484  0.00  0.00    -0.270 OA
ATOM     31  H   UNL     1      13.365  24.165  19.018  0.00  0.00    +0.155 HD
BRANCH  14  15
ATOM     15  C   UNL     1      14.424  23.270  16.825  0.00  0.00    +0.037 A 
ATOM     16  C   UNL     1      15.491  23.338  17.827  0.00  0.00    +0.013 A 
ATOM     17  C   UNL     1      16.871  23.377  17.412  0.00  0.00    +0.005 A 
ATOM     18  C   UNL     1      17.192  23.345  15.987  0.00  0.00    -0.033 A 
ATOM     28  C   UNL     1      16.114  23.273  15.015  0.00  0.00    +0.005 A 
ATOM     29  C   UNL     1      14.760  23.236  15.417  0.00  0.00    +0.013 A 
BRANCH  18  19
ATOM     19  C   UNL     1      18.636  23.404  15.453  0.00  0.00    +0.119 C 
BRANCH  19  20
ATOM     20  N   UNL     1      19.034  22.377  14.445  0.00  0.00    -0.302 NA
ATOM     21  C   UNL     1      18.902  20.953  14.992  0.00  0.00    +0.066 C 
ATOM     22  C   UNL     1      19.301  19.890  13.917  0.00  0.00    -0.064 C 
ATOM     23  N   UNL     1      20.731  20.159  13.445  0.00  0.00    +0.379 N 
ATOM     24  C   UNL     1      21.129  19.127  12.476  0.00  0.00    -0.096 C 
ATOM     25  H   UNL     1      21.401  20.068  14.331  0.00  0.00    -0.082 HD
ATOM     26  C   UNL     1      20.872  21.574  12.902  0.00  0.00    -0.064 C 
ATOM     27  C   UNL     1      20.445  22.620  13.968  0.00  0.00    +0.066 C 
ENDBRANCH  19  20
ENDBRANCH  18  19
ENDBRANCH  14  15
ENDBRANCH  12  13
TORSDOF 6
ENDMDL
MODEL 5
REMARK VINA RESULT:      -8.7      9.669     14.148
REMARK  Name = C:\Users\Docking\Desktop\test protocol\1iep_ligandH.pdb
REMARK  8 active torsions:
REMARK  status: ('A' for Active; 'I' for Inactive)
REMARK    1  A    between atoms: _5  and  _11
REMARK    2  A    between atoms: _19  and  _21
REMARK    3  A    between atoms: _22  and  _66
REMARK    4  A    between atoms: _27  and  _30
REMARK    5  A    between atoms: _32  and  _33
REMARK    6  A    between atoms: _38  and  _43
REMARK    7  A    between atoms: _43  and  _46
REMARK    8  A    between atoms: _53  and  _55
REMARK                            x       y       z     vdW  Elec       q    Type
REMARK                         _______ _______ _______ _____ _____    ______ ____
ROOT
ATOM     10  C   UNL     1      20.568  25.517  14.735  0.00  0.00    +0.038 A 
ATOM     11  C   UNL     1      21.959  25.716  14.928  0.00  0.00    +0.047 A 
ATOM     12  C   UNL     1      22.533  27.053  14.943  0.00  0.00    +0.035 A 
ATOM     32  C   UNL     1      21.660  28.165  14.763  0.00  0.00    +0.024 A 
ATOM     33  C   UNL     1      20.243  27.981  14.565  0.00  0.00    +0.007 A 
ATOM     34  C   UNL     1      19.672  26.665  14.546  0.00  0.00    -0.029 A 
ATOM     35  C   UNL     1      18.148  26.527  14.324  0.00  0.00    +0.045 C 
ENDROOT
BRANCH  10   9
ATOM      4  C   UNL     1      19.073  21.568  12.453  0.00  0.00    +0.077 A 
ATOM      5  C   UNL     1      19.275  22.165  11.165  0.00  0.00    +0.048 A 
ATOM      6  C   UNL     1      19.758  23.493  11.133  0.00  0.00    +0.116 A 
ATOM      7  N   UNL     1      20.016  24.163  12.308  0.00  0.00    -0.223 NA
ATOM      8  C   UNL     1      19.810  23.559  13.535  0.00  0.00    +0.220 A 
ATOM      9  N   UNL     1      20.071  24.212  14.729  0.00  0.00    -0.283 N 
ATOM     36  H   UNL     1      19.898  23.734  15.613  0.00  0.00    +0.155 HD
ATOM     37  N   UNL     1      19.348  22.293  13.592  0.00  0.00    -0.214 NA
BRANCH   4   3
ATOM      1  C   UNL     1      18.666  17.683  12.249  0.00  0.00    +0.020 A 
ATOM      2  C   UNL     1      19.190  19.011  12.024  0.00  0.00    +0.013 A 
ATOM      3  C   UNL     1      18.571  20.172  12.652  0.00  0.00    +0.019 A 
ATOM     38  C   UNL     1      17.415  19.953  13.508  0.00  0.00    +0.120 A 
ATOM     39  N   UNL     1      16.932  18.663  13.705  0.00  0.00    -0.263 NA
ATOM     40  C   UNL     1      17.518  17.539  13.105  0.00  0.00    +0.111 A 
ENDBRANCH   4   3
ENDBRANCH  10   9
BRANCH  12  13
ATOM     13  N   UNL     1      23.938  27.316  15.126  0.00  0.00    -0.281 N 
ATOM     14  C   UNL     1      24.649  27.363  16.315  0.00  0.00    +0.248 C 
ATOM     30  O   UNL     1      24.138  27.396  17.424  0.00  0.00    -0.270 OA
ATOM     31  H   UNL     1      24.475  27.489  14.276  0.00  0.00    +0.155 HD
BRANCH  14  15
ATOM     15  C   UNL     1      26.142  27.391  16.263  0.00  0.00    +0.037 A 
ATOM     16  C   UNL     1      26.913  26.196  15.911  0.00  0.00    +0.013 A 
ATOM     17  C   UNL     1      28.354  26.247  15.885  0.00  0.00    +0.005 A 
ATOM     18  C   UNL     1      29.032  27.499  16.211  0.00  0.00    -0.033 A 
ATOM     28  C   UNL     1      28.243  28.670  16.552  0.00  0.00    +0.005 A 
ATOM     29  C   UNL     1      26.831  28.625  16.579  0.00  0.00    +0.013 A 
BRANCH  18  19
ATOM     19  C   UNL     1      30.566  27.638  16.229  0.00  0.00    +0.119 C 
BRANCH  19  20
ATOM     20  N   UNL     1      31.267  27.650  14.911  0.00  0.00    -0.302 NA
ATOM     21  C   UNL     1      30.475  28.414  13.846  0.00  0.00    +0.066 C 
ATOM     22  C   UNL     1      31.233  28.436  12.479  0.00  0.00    -0.064 C 
ATOM     23  N   UNL     1      31.505  27.000  12.026  0.00  0.00    +0.379 N 
ATOM     24  C   UNL     1      32.166  27.017  10.713  0.00  0.00    -0.096 C 
ATOM     25  H   UNL     1      30.520  26.493  11.902  0.00  0.00    -0.082 HD
ATOM     26  C   UNL     1      32.290  26.233  13.080  0.00  0.00    -0.064 C 
ATOM     27  C   UNL     1      31.541  26.242  14.442  0.00  0.00    +0.066 C 
ENDBRANCH  19  20
ENDBRANCH  18  19
ENDBRANCH  14  15
ENDBRANCH  12  13
TORSDOF 6
ENDMDL
