MODEL 1
REMARK VINA RESULT:      -9.4      0.000      0.000
REMARK  Name = C:\Users\Docking\Desktop\test protocol\1iep_ligandH.pdb
REMARK  8 active torsions:
REMARK  status: ('A' for Active; 'I' for Inactive)
REMARK    1  A    between atoms: _5  and  _11
REMARK    2  A    between atoms: _19  and  _21
REMARK    3  A    between atoms: _22  and  _66
REMARK    4  A    between atoms: _27  and  _30
REMARK    5  A    between atoms: _32  and  _33
REMARK    6  A    between atoms: _38  and  _43
REMARK    7  A    between atoms: _43  and  _46
REMARK    8  A    between atoms: _53  and  _55
REMARK                            x       y       z     vdW  Elec       q    Type
REMARK                         _______ _______ _______ _____ _____    ______ ____
ROOT
ATOM     10  C   UNL     1     -15.235  20.920  -8.276  0.00  0.00    +0.038 A 
ATOM     11  C   UNL     1     -16.290  20.002  -8.043  0.00  0.00    +0.047 A 
ATOM     12  C   UNL     1     -17.653  20.302  -8.453  0.00  0.00    +0.035 A 
ATOM     32  C   UNL     1     -17.905  21.546  -9.101  0.00  0.00    +0.024 A 
ATOM     33  C   UNL     1     -16.844  22.491  -9.345  0.00  0.00    +0.007 A 
ATOM     34  C   UNL     1     -15.498  22.202  -8.941  0.00  0.00    -0.029 A 
ATOM     35  C   UNL     1     -14.402  23.256  -9.223  0.00  0.00    +0.045 C 
ENDROOT
BRANCH  10   9
ATOM      4  C   UNL     1     -12.112  19.437  -4.947  0.00  0.00    +0.077 A 
ATOM      5  C   UNL     1     -13.132  19.357  -3.941  0.00  0.00    +0.048 A 
ATOM      6  C   UNL     1     -14.445  19.713  -4.320  0.00  0.00    +0.116 A 
ATOM      7  N   UNL     1     -14.708  20.117  -5.611  0.00  0.00    -0.223 NA
ATOM      8  C   UNL     1     -13.701  20.185  -6.556  0.00  0.00    +0.220 A 
ATOM      9  N   UNL     1     -13.945  20.581  -7.862  0.00  0.00    -0.283 N 
ATOM     36  H   UNL     1     -13.173  20.624  -8.528  0.00  0.00    +0.155 HD
ATOM     37  N   UNL     1     -12.438  19.851  -6.219  0.00  0.00    -0.214 NA
BRANCH   4   3
ATOM      1  C   UNL     1      -8.209  19.616  -4.750  0.00  0.00    +0.020 A 
ATOM      2  C   UNL     1      -9.578  20.000  -5.007  0.00  0.00    +0.013 A 
ATOM      3  C   UNL     1     -10.676  19.090  -4.702  0.00  0.00    +0.019 A 
ATOM     38  C   UNL     1     -10.351  17.790  -4.134  0.00  0.00    +0.120 A 
ATOM     39  N   UNL     1      -9.023  17.448  -3.900  0.00  0.00    -0.263 NA
ATOM     40  C   UNL     1      -7.959  18.314  -4.190  0.00  0.00    +0.111 A 
ENDBRANCH   4   3
ENDBRANCH  10   9
BRANCH  12  13
ATOM     13  N   UNL     1     -18.766  19.412  -8.235  0.00  0.00    -0.281 N 
ATOM     14  C   UNL     1     -19.411  18.611  -9.164  0.00  0.00    +0.248 C 
ATOM     30  O   UNL     1     -19.264  18.700 -10.374  0.00  0.00    -0.270 OA
ATOM     31  H   UNL     1     -19.123  19.366  -7.280  0.00  0.00    +0.155 HD
BRANCH  14  15
ATOM     15  C   UNL     1     -20.369  17.571  -8.680  0.00  0.00    +0.037 A 
ATOM     16  C   UNL     1     -19.968  16.167  -8.557  0.00  0.00    +0.013 A 
ATOM     17  C   UNL     1     -20.916  15.181  -8.103  0.00  0.00    +0.005 A 
ATOM     18  C   UNL     1     -22.276  15.597  -7.768  0.00  0.00    -0.033 A 
ATOM     28  C   UNL     1     -22.646  16.997  -7.894  0.00  0.00    +0.005 A 
ATOM     29  C   UNL     1     -21.719  17.966  -8.339  0.00  0.00    +0.013 A 
BRANCH  18  19
ATOM     19  C   UNL     1     -23.360  14.610  -7.296  0.00  0.00    +0.119 C 
BRANCH  19  20
ATOM     20  N   UNL     1     -24.761  15.120  -7.214  0.00  0.00    -0.302 NA
ATOM     21  C   UNL     1     -25.202  15.358  -5.767  0.00  0.00    +0.066 C 
ATOM     22  C   UNL     1     -26.662  15.913  -5.701  0.00  0.00    -0.064 C 
ATOM     23  N   UNL     1     -27.608  14.937  -6.402  0.00  0.00    +0.379 N 
ATOM     24  C   UNL     1     -28.990  15.428  -6.291  0.00  0.00    -0.096 C 
ATOM     25  H   UNL     1     -27.551  13.964  -5.862  0.00  0.00    -0.082 HD
ATOM     26  C   UNL     1     -27.176  14.692  -7.841  0.00  0.00    -0.064 C 
ATOM     27  C   UNL     1     -25.713  14.169  -7.897  0.00  0.00    +0.066 C 
ENDBRANCH  19  20
ENDBRANCH  18  19
ENDBRANCH  14  15
ENDBRANCH  12  13
TORSDOF 6
ENDMDL
MODEL 2
REMARK VINA RESULT:      -9.3      2.117     12.609
REMARK  Name = C:\Users\Docking\Desktop\test protocol\1iep_ligandH.pdb
REMARK  8 active torsions:
REMARK  status: ('A' for Active; 'I' for Inactive)
REMARK    1  A    between atoms: _5  and  _11
REMARK    2  A    between atoms: _19  and  _21
REMARK    3  A    between atoms: _22  and  _66
REMARK    4  A    between atoms: _27  and  _30
REMARK    5  A    between atoms: _32  and  _33
REMARK    6  A    between atoms: _38  and  _43
REMARK    7  A    between atoms: _43  and  _46
REMARK    8  A    between atoms: _53  and  _55
REMARK                            x       y       z     vdW  Elec       q    Type
REMARK                         _______ _______ _______ _____ _____    ______ ____
ROOT
ATOM     10  C   UNL     1     -19.623  20.190  -8.817  0.00  0.00    +0.038 A 
ATOM     11  C   UNL     1     -18.395  20.344  -8.123  0.00  0.00    +0.047 A 
ATOM     12  C   UNL     1     -17.250  20.981  -8.754  0.00  0.00    +0.035 A 
ATOM     32  C   UNL     1     -17.391  21.452 -10.092  0.00  0.00    +0.024 A 
ATOM     33  C   UNL     1     -18.631  21.304 -10.811  0.00  0.00    +0.007 A 
ATOM     34  C   UNL     1     -19.764  20.674 -10.195  0.00  0.00    -0.029 A 
ATOM     35  C   UNL     1     -21.067  20.536 -11.017  0.00  0.00    +0.045 C 
ENDROOT
BRANCH  10   9
ATOM      4  C   UNL     1     -22.040  16.286  -7.418  0.00  0.00    +0.077 A 
ATOM      5  C   UNL     1     -21.111  15.406  -8.067  0.00  0.00    +0.048 A 
ATOM      6  C   UNL     1     -20.030  15.999  -8.757  0.00  0.00    +0.116 A 
ATOM      7  N   UNL     1     -19.896  17.370  -8.787  0.00  0.00    -0.223 NA
ATOM      8  C   UNL     1     -20.810  18.190  -8.152  0.00  0.00    +0.220 A 
ATOM      9  N   UNL     1     -20.691  19.571  -8.163  0.00  0.00    -0.283 N 
ATOM     36  H   UNL     1     -21.390  20.142  -7.688  0.00  0.00    +0.155 HD
ATOM     37  N   UNL     1     -21.853  17.649  -7.488  0.00  0.00    -0.214 NA
BRANCH   4   3
ATOM      1  C   UNL     1     -25.309  14.404  -6.383  0.00  0.00    +0.020 A 
ATOM      2  C   UNL     1     -24.173  14.829  -7.169  0.00  0.00    +0.013 A 
ATOM      3  C   UNL     1     -23.232  15.812  -6.647  0.00  0.00    +0.019 A 
ATOM     38  C   UNL     1     -23.470  16.349  -5.316  0.00  0.00    +0.120 A 
ATOM     39  N   UNL     1     -24.573  15.922  -4.583  0.00  0.00    -0.263 NA
ATOM     40  C   UNL     1     -25.486  14.978  -5.075  0.00  0.00    +0.111 A 
ENDBRANCH   4   3
ENDBRANCH  10   9
BRANCH  12  13
ATOM     13  N   UNL     1     -15.976  21.157  -8.102  0.00  0.00    -0.281 N 
ATOM     14  C   UNL     1     -15.194  20.194  -7.485  0.00  0.00    +0.248 C 
ATOM     30  O   UNL     1     -15.576  19.066  -7.210  0.00  0.00    -0.270 OA
ATOM     31  H   UNL     1     -15.604  22.107  -8.096  0.00  0.00    +0.155 HD
BRANCH  14  15
ATOM     15  C   UNL     1     -13.791  20.539  -7.103  0.00  0.00    +0.037 A 
ATOM     16  C   UNL     1     -13.240  20.151  -5.802  0.00  0.00    +0.013 A 
ATOM     17  C   UNL     1     -11.888  20.511  -5.453  0.00  0.00    +0.005 A 
ATOM     18  C   UNL     1     -11.078  21.263  -6.408  0.00  0.00    -0.033 A 
ATOM     28  C   UNL     1     -11.648  21.630  -7.694  0.00  0.00    +0.005 A 
ATOM     29  C   UNL     1     -12.972  21.280  -8.039  0.00  0.00    +0.013 A 
BRANCH  18  19
ATOM     19  C   UNL     1      -9.633  21.707  -6.112  0.00  0.00    +0.119 C 
BRANCH  19  20
ATOM     20  N   UNL     1      -8.927  21.029  -4.984  0.00  0.00    -0.302 NA
ATOM     21  C   UNL     1      -7.836  21.914  -4.374  0.00  0.00    +0.066 C 
ATOM     22  C   UNL     1      -7.123  21.197  -3.182  0.00  0.00    -0.064 C 
ATOM     23  N   UNL     1      -6.535  19.870  -3.666  0.00  0.00    +0.379 N 
ATOM     24  C   UNL     1      -5.814  19.221  -2.562  0.00  0.00    -0.096 C 
ATOM     25  H   UNL     1      -5.794  20.101  -4.466  0.00  0.00    -0.082 HD
ATOM     26  C   UNL     1      -7.612  18.985  -4.277  0.00  0.00    -0.064 C 
ATOM     27  C   UNL     1      -8.335  19.718  -5.442  0.00  0.00    +0.066 C 
ENDBRANCH  19  20
ENDBRANCH  18  19
ENDBRANCH  14  15
ENDBRANCH  12  13
TORSDOF 6
ENDMDL
MODEL 3
REMARK VINA RESULT:      -9.3      5.610      9.055
REMARK  Name = C:\Users\Docking\Desktop\test protocol\1iep_ligandH.pdb
REMARK  8 active torsions:
REMARK  status: ('A' for Active; 'I' for Inactive)
REMARK    1  A    between atoms: _5  and  _11
REMARK    2  A    between atoms: _19  and  _21
REMARK    3  A    between atoms: _22  and  _66
REMARK    4  A    between atoms: _27  and  _30
REMARK    5  A    between atoms: _32  and  _33
REMARK    6  A    between atoms: _38  and  _43
REMARK    7  A    between atoms: _43  and  _46
REMARK    8  A    between atoms: _53  and  _55
REMARK                            x       y       z     vdW  Elec       q    Type
REMARK                         _______ _______ _______ _____ _____    ______ ____
ROOT
ATOM     10  C   UNL     1      -9.308  17.559  -3.773  0.00  0.00    +0.038 A 
ATOM     11  C   UNL     1     -10.546  17.837  -4.407  0.00  0.00    +0.047 A 
ATOM     12  C   UNL     1     -11.139  19.163  -4.351  0.00  0.00    +0.035 A 
ATOM     32  C   UNL     1     -10.443  20.186  -3.642  0.00  0.00    +0.024 A 
ATOM     33  C   UNL     1      -9.184  19.921  -2.991  0.00  0.00    +0.007 A 
ATOM     34  C   UNL     1      -8.595  18.613  -3.041  0.00  0.00    -0.029 A 
ATOM     35  C   UNL     1      -7.246  18.385  -2.320  0.00  0.00    +0.045 C 
ENDROOT
BRANCH  10   9
ATOM      4  C   UNL     1      -8.255  13.283  -1.864  0.00  0.00    +0.077 A 
ATOM      5  C   UNL     1      -8.768  13.664  -0.579  0.00  0.00    +0.048 A 
ATOM      6  C   UNL     1      -9.287  14.972  -0.450  0.00  0.00    +0.116 A 
ATOM      7  N   UNL     1      -9.289  15.826  -1.531  0.00  0.00    -0.223 NA
ATOM      8  C   UNL     1      -8.785  15.428  -2.756  0.00  0.00    +0.220 A 
ATOM      9  N   UNL     1      -8.784  16.267  -3.859  0.00  0.00    -0.283 N 
ATOM     36  H   UNL     1      -8.396  15.938  -4.743  0.00  0.00    +0.155 HD
ATOM     37  N   UNL     1      -8.282  14.184  -2.905  0.00  0.00    -0.214 NA
BRANCH   4   3
ATOM      1  C   UNL     1      -6.059  10.049  -1.716  0.00  0.00    +0.020 A 
ATOM      2  C   UNL     1      -6.582  11.356  -1.390  0.00  0.00    +0.013 A 
ATOM      3  C   UNL     1      -7.676  11.934  -2.159  0.00  0.00    +0.019 A 
ATOM     38  C   UNL     1      -8.225  11.158  -3.261  0.00  0.00    +0.120 A 
ATOM     39  N   UNL     1      -7.700   9.902  -3.553  0.00  0.00    -0.263 NA
ATOM     40  C   UNL     1      -6.646   9.337  -2.820  0.00  0.00    +0.111 A 
ENDBRANCH   4   3
ENDBRANCH  10   9
BRANCH  12  13
ATOM     13  N   UNL     1     -12.398  19.502  -4.968  0.00  0.00    -0.281 N 
ATOM     14  C   UNL     1     -12.620  20.354  -6.038  0.00  0.00    +0.248 C 
ATOM     30  O   UNL     1     -11.786  21.124  -6.492  0.00  0.00    -0.270 OA
ATOM     31  H   UNL     1     -13.225  19.060  -4.567  0.00  0.00    +0.155 HD
BRANCH  14  15
ATOM     15  C   UNL     1     -13.966  20.362  -6.687  0.00  0.00    +0.037 A 
ATOM     16  C   UNL     1     -15.179  20.058  -5.924  0.00  0.00    +0.013 A 
ATOM     17  C   UNL     1     -16.463  20.056  -6.579  0.00  0.00    +0.005 A 
ATOM     18  C   UNL     1     -16.541  20.361  -8.005  0.00  0.00    -0.033 A 
ATOM     28  C   UNL     1     -15.322  20.665  -8.737  0.00  0.00    +0.005 A 
ATOM     29  C   UNL     1     -14.061  20.667  -8.099  0.00  0.00    +0.013 A 
BRANCH  18  19
ATOM     19  C   UNL     1     -17.866  20.362  -8.790  0.00  0.00    +0.119 C 
BRANCH  19  20
ATOM     20  N   UNL     1     -18.063  21.445  -9.799  0.00  0.00    -0.302 NA
ATOM     21  C   UNL     1     -18.089  22.833  -9.153  0.00  0.00    +0.066 C 
ATOM     22  C   UNL     1     -18.274  23.956 -10.225  0.00  0.00    -0.064 C 
ATOM     23  N   UNL     1     -19.561  23.701 -11.011  0.00  0.00    +0.379 N 
ATOM     24  C   UNL     1     -19.767  24.786 -11.981  0.00  0.00    -0.096 C 
ATOM     25  H   UNL     1     -20.409  23.726 -10.289  0.00  0.00    -0.082 HD
ATOM     26  C   UNL     1     -19.544  22.321 -11.655  0.00  0.00    -0.064 C 
ATOM     27  C   UNL     1     -19.331  21.215 -10.584  0.00  0.00    +0.066 C 
ENDBRANCH  19  20
ENDBRANCH  18  19
ENDBRANCH  14  15
ENDBRANCH  12  13
TORSDOF 6
ENDMDL
MODEL 4
REMARK VINA RESULT:      -9.3      5.833      9.933
REMARK  Name = C:\Users\Docking\Desktop\test protocol\1iep_ligandH.pdb
REMARK  8 active torsions:
REMARK  status: ('A' for Active; 'I' for Inactive)
REMARK    1  A    between atoms: _5  and  _11
REMARK    2  A    between atoms: _19  and  _21
REMARK    3  A    between atoms: _22  and  _66
REMARK    4  A    between atoms: _27  and  _30
REMARK    5  A    between atoms: _32  and  _33
REMARK    6  A    between atoms: _38  and  _43
REMARK    7  A    between atoms: _43  and  _46
REMARK    8  A    between atoms: _53  and  _55
REMARK                            x       y       z     vdW  Elec       q    Type
REMARK                         _______ _______ _______ _____ _____    ______ ____
ROOT
ATOM     10  C   UNL     1      -8.589  18.575  -2.283  0.00  0.00    +0.038 A 
ATOM     11  C   UNL     1      -9.713  18.871  -3.096  0.00  0.00    +0.047 A 
ATOM     12  C   UNL     1      -9.550  19.336  -4.464  0.00  0.00    +0.035 A 
ATOM     32  C   UNL     1      -8.228  19.486  -4.975  0.00  0.00    +0.024 A 
ATOM     33  C   UNL     1      -7.074  19.190  -4.163  0.00  0.00    +0.007 A 
ATOM     34  C   UNL     1      -7.228  18.733  -2.811  0.00  0.00    -0.029 A 
ATOM     35  C   UNL     1      -5.955  18.437  -1.984  0.00  0.00    +0.045 C 
ENDROOT
BRANCH  10   9
ATOM      4  C   UNL     1      -9.051  15.086   0.981  0.00  0.00    +0.077 A 
ATOM      5  C   UNL     1      -8.879  14.059  -0.006  0.00  0.00    +0.048 A 
ATOM      6  C   UNL     1      -8.680  14.471  -1.343  0.00  0.00    +0.116 A 
ATOM      7  N   UNL     1      -8.658  15.812  -1.658  0.00  0.00    -0.223 NA
ATOM      8  C   UNL     1      -8.830  16.777  -0.683  0.00  0.00    +0.220 A 
ATOM      9  N   UNL     1      -8.803  18.131  -0.976  0.00  0.00    -0.283 N 
ATOM     36  H   UNL     1      -8.941  18.812  -0.230  0.00  0.00    +0.155 HD
ATOM     37  N   UNL     1      -9.022  16.410   0.601  0.00  0.00    -0.214 NA
BRANCH   4   3
ATOM      1  C   UNL     1      -8.461  14.120   4.725  0.00  0.00    +0.020 A 
ATOM      2  C   UNL     1      -8.200  14.372   3.326  0.00  0.00    +0.013 A 
ATOM      3  C   UNL     1      -9.267  14.811   2.436  0.00  0.00    +0.019 A 
ATOM     38  C   UNL     1     -10.598  14.986   2.997  0.00  0.00    +0.120 A 
ATOM     39  N   UNL     1     -10.821  14.735   4.348  0.00  0.00    -0.263 NA
ATOM     40  C   UNL     1      -9.801  14.311   5.213  0.00  0.00    +0.111 A 
ENDBRANCH   4   3
ENDBRANCH  10   9
BRANCH  12  13
ATOM     13  N   UNL     1     -10.654  19.661  -5.334  0.00  0.00    -0.281 N 
ATOM     14  C   UNL     1     -11.251  20.895  -5.528  0.00  0.00    +0.248 C 
ATOM     30  O   UNL     1     -11.064  21.873  -4.818  0.00  0.00    -0.270 OA
ATOM     31  H   UNL     1     -11.042  18.886  -5.872  0.00  0.00    +0.155 HD
BRANCH  14  15
ATOM     15  C   UNL     1     -12.206  21.065  -6.665  0.00  0.00    +0.037 A 
ATOM     16  C   UNL     1     -12.017  22.120  -7.665  0.00  0.00    +0.013 A 
ATOM     17  C   UNL     1     -12.962  22.273  -8.742  0.00  0.00    +0.005 A 
ATOM     18  C   UNL     1     -14.105  21.366  -8.826  0.00  0.00    -0.033 A 
ATOM     28  C   UNL     1     -14.265  20.326  -7.824  0.00  0.00    +0.005 A 
ATOM     29  C   UNL     1     -13.342  20.174  -6.766  0.00  0.00    +0.013 A 
BRANCH  18  19
ATOM     19  C   UNL     1     -15.174  21.469  -9.930  0.00  0.00    +0.119 C 
BRANCH  19  20
ATOM     20  N   UNL     1     -16.584  21.705  -9.496  0.00  0.00    -0.302 NA
ATOM     21  C   UNL     1     -17.594  21.086 -10.467  0.00  0.00    +0.066 C 
ATOM     22  C   UNL     1     -19.063  21.322  -9.986  0.00  0.00    -0.064 C 
ATOM     23  N   UNL     1     -19.311  22.824  -9.830  0.00  0.00    +0.379 N 
ATOM     24  C   UNL     1     -20.708  23.052  -9.434  0.00  0.00    -0.096 C 
ATOM     25  H   UNL     1     -19.160  23.297 -10.828  0.00  0.00    -0.082 HD
ATOM     26  C   UNL     1     -18.309  23.447  -8.868  0.00  0.00    -0.064 C 
ATOM     27  C   UNL     1     -16.852  23.181  -9.340  0.00  0.00    +0.066 C 
ENDBRANCH  19  20
ENDBRANCH  18  19
ENDBRANCH  14  15
ENDBRANCH  12  13
TORSDOF 6
ENDMDL
MODEL 5
REMARK VINA RESULT:      -9.3      8.292     14.989
REMARK  Name = C:\Users\Docking\Desktop\test protocol\1iep_ligandH.pdb
REMARK  8 active torsions:
REMARK  status: ('A' for Active; 'I' for Inactive)
REMARK    1  A    between atoms: _5  and  _11
REMARK    2  A    between atoms: _19  and  _21
REMARK    3  A    between atoms: _22  and  _66
REMARK    4  A    between atoms: _27  and  _30
REMARK    5  A    between atoms: _32  and  _33
REMARK    6  A    between atoms: _38  and  _43
REMARK    7  A    between atoms: _43  and  _46
REMARK    8  A    between atoms: _53  and  _55
REMARK                            x       y       z     vdW  Elec       q    Type
REMARK                         _______ _______ _______ _____ _____    ______ ____
ROOT
ATOM     10  C   UNL     1     -10.601  15.924  -2.107  0.00  0.00    +0.038 A 
ATOM     11  C   UNL     1      -9.987  14.830  -2.767  0.00  0.00    +0.047 A 
ATOM     12  C   UNL     1      -9.078  13.940  -2.061  0.00  0.00    +0.035 A 
ATOM     32  C   UNL     1      -8.819  14.193  -0.682  0.00  0.00    +0.024 A 
ATOM     33  C   UNL     1      -9.435  15.301   0.004  0.00  0.00    +0.007 A 
ATOM     34  C   UNL     1     -10.330  16.184  -0.688  0.00  0.00    -0.029 A 
ATOM     35  C   UNL     1     -10.956  17.361   0.097  0.00  0.00    +0.045 C 
ENDROOT
BRANCH  10   9
ATOM      4  C   UNL     1     -11.457  19.646  -5.015  0.00  0.00    +0.077 A 
ATOM      5  C   UNL     1     -10.067  19.997  -5.071  0.00  0.00    +0.048 A 
ATOM      6  C   UNL     1      -9.166  19.199  -4.332  0.00  0.00    +0.116 A 
ATOM      7  N   UNL     1      -9.630  18.132  -3.595  0.00  0.00    -0.223 NA
ATOM      8  C   UNL     1     -10.977  17.821  -3.561  0.00  0.00    +0.220 A 
ATOM      9  N   UNL     1     -11.466  16.747  -2.833  0.00  0.00    -0.283 N 
ATOM     36  H   UNL     1     -12.467  16.555  -2.827  0.00  0.00    +0.155 HD
ATOM     37  N   UNL     1     -11.859  18.569  -4.257  0.00  0.00    -0.214 NA
BRANCH   4   3
ATOM      1  C   UNL     1     -14.065  20.742  -7.717  0.00  0.00    +0.020 A 
ATOM      2  C   UNL     1     -13.025  19.988  -7.055  0.00  0.00    +0.013 A 
ATOM      3  C   UNL     1     -12.532  20.391  -5.744  0.00  0.00    +0.019 A 
ATOM     38  C   UNL     1     -13.117  21.570  -5.124  0.00  0.00    +0.120 A 
ATOM     39  N   UNL     1     -14.116  22.277  -5.786  0.00  0.00    -0.263 NA
ATOM     40  C   UNL     1     -14.597  21.900  -7.049  0.00  0.00    +0.111 A 
ENDBRANCH   4   3
ENDBRANCH  10   9
BRANCH  12  13
ATOM     13  N   UNL     1      -8.418  12.817  -2.681  0.00  0.00    -0.281 N 
ATOM     14  C   UNL     1      -7.497  11.951  -2.113  0.00  0.00    +0.248 C 
ATOM     30  O   UNL     1      -6.938  12.141  -1.044  0.00  0.00    -0.270 OA
ATOM     31  H   UNL     1      -8.659  12.640  -3.656  0.00  0.00    +0.155 HD
BRANCH  14  15
ATOM     15  C   UNL     1      -7.135  10.701  -2.847  0.00  0.00    +0.037 A 
ATOM     16  C   UNL     1      -5.740  10.380  -3.160  0.00  0.00    +0.013 A 
ATOM     17  C   UNL     1      -5.419   9.176  -3.884  0.00  0.00    +0.005 A 
ATOM     18  C   UNL     1      -6.497   8.282  -4.299  0.00  0.00    -0.033 A 
ATOM     28  C   UNL     1      -7.872   8.622  -3.972  0.00  0.00    +0.005 A 
ATOM     29  C   UNL     1      -8.190   9.802  -3.263  0.00  0.00    +0.013 A 
BRANCH  18  19
ATOM     19  C   UNL     1      -6.250   6.986  -5.094  0.00  0.00    +0.119 C 
BRANCH  19  20
ATOM     20  N   UNL     1      -5.402   5.939  -4.449  0.00  0.00    -0.302 NA
ATOM     21  C   UNL     1      -5.482   4.600  -5.186  0.00  0.00    +0.066 C 
ATOM     22  C   UNL     1      -4.572   3.523  -4.510  0.00  0.00    -0.064 C 
ATOM     23  N   UNL     1      -4.981   3.360  -3.045  0.00  0.00    +0.379 N 
ATOM     24  C   UNL     1      -4.165   2.307  -2.423  0.00  0.00    -0.096 C 
ATOM     25  H   UNL     1      -6.043   3.022  -3.026  0.00  0.00    -0.082 HD
ATOM     26  C   UNL     1      -4.906   4.688  -2.305  0.00  0.00    -0.064 C 
ATOM     27  C   UNL     1      -5.791   5.759  -3.002  0.00  0.00    +0.066 C 
ENDBRANCH  19  20
ENDBRANCH  18  19
ENDBRANCH  14  15
ENDBRANCH  12  13
TORSDOF 6
ENDMDL
