MODEL 1
REMARK VINA RESULT:      -9.0      0.000      0.000
REMARK  Name = C:\Users\Docking\Desktop\test protocol\1iep_ligandH.pdb
REMARK  8 active torsions:
REMARK  status: ('A' for Active; 'I' for Inactive)
REMARK    1  A    between atoms: _5  and  _11
REMARK    2  A    between atoms: _19  and  _21
REMARK    3  A    between atoms: _22  and  _66
REMARK    4  A    between atoms: _27  and  _30
REMARK    5  A    between atoms: _32  and  _33
REMARK    6  A    between atoms: _38  and  _43
REMARK    7  A    between atoms: _43  and  _46
REMARK    8  A    between atoms: _53  and  _55
REMARK                            x       y       z     vdW  Elec       q    Type
REMARK                         _______ _______ _______ _____ _____    ______ ____
ROOT
ATOM     10  C   UNL     1     -19.015  15.835 -20.830  0.00  0.00    +0.038 A 
ATOM     11  C   UNL     1     -19.611  14.741 -20.152  0.00  0.00    +0.047 A 
ATOM     12  C   UNL     1     -20.467  13.797 -20.853  0.00  0.00    +0.035 A 
ATOM     32  C   UNL     1     -20.692  13.995 -22.246  0.00  0.00    +0.024 A 
ATOM     33  C   UNL     1     -20.095  15.101 -22.951  0.00  0.00    +0.007 A 
ATOM     34  C   UNL     1     -19.252  16.038 -22.264  0.00  0.00    -0.029 A 
ATOM     35  C   UNL     1     -18.643  17.209 -23.070  0.00  0.00    +0.045 C 
ENDROOT
BRANCH  10   9
ATOM      4  C   UNL     1     -18.374  19.696 -18.052  0.00  0.00    +0.077 A 
ATOM      5  C   UNL     1     -19.774  20.010 -18.064  0.00  0.00    +0.048 A 
ATOM      6  C   UNL     1     -20.624  19.157 -18.802  0.00  0.00    +0.116 A 
ATOM      7  N   UNL     1     -20.102  18.073 -19.475  0.00  0.00    -0.223 NA
ATOM      8  C   UNL     1     -18.747  17.800 -19.445  0.00  0.00    +0.220 A 
ATOM      9  N   UNL     1     -18.202  16.711 -20.107  0.00  0.00    -0.283 N 
ATOM     36  H   UNL     1     -17.196  16.548 -20.067  0.00  0.00    +0.155 HD
ATOM     37  N   UNL     1     -17.914  18.600 -18.748  0.00  0.00    -0.214 NA
BRANCH   4   3
ATOM      1  C   UNL     1     -16.539  22.622 -16.216  0.00  0.00    +0.020 A 
ATOM      2  C   UNL     1     -17.561  21.890 -16.928  0.00  0.00    +0.013 A 
ATOM      3  C   UNL     1     -17.349  20.501 -17.315  0.00  0.00    +0.019 A 
ATOM     38  C   UNL     1     -16.082  19.877 -16.964  0.00  0.00    +0.120 A 
ATOM     39  N   UNL     1     -15.116  20.608 -16.279  0.00  0.00    -0.263 NA
ATOM     40  C   UNL     1     -15.308  21.946 -15.903  0.00  0.00    +0.111 A 
ENDBRANCH   4   3
ENDBRANCH  10   9
BRANCH  12  13
ATOM     13  N   UNL     1     -21.106  12.672 -20.215  0.00  0.00    -0.281 N 
ATOM     14  C   UNL     1     -22.130  11.881 -20.710  0.00  0.00    +0.248 C 
ATOM     30  O   UNL     1     -22.801  12.155 -21.694  0.00  0.00    -0.270 OA
ATOM     31  H   UNL     1     -20.762  12.430 -19.286  0.00  0.00    +0.155 HD
BRANCH  14  15
ATOM     15  C   UNL     1     -22.467  10.610 -20.001  0.00  0.00    +0.037 A 
ATOM     16  C   UNL     1     -23.856  10.166 -19.855  0.00  0.00    +0.013 A 
ATOM     17  C   UNL     1     -24.155   8.944 -19.152  0.00  0.00    +0.005 A 
ATOM     18  C   UNL     1     -23.061   8.155 -18.590  0.00  0.00    -0.033 A 
ATOM     28  C   UNL     1     -21.692   8.616 -18.753  0.00  0.00    +0.005 A 
ATOM     29  C   UNL     1     -21.396   9.814 -19.441  0.00  0.00    +0.013 A 
BRANCH  18  19
ATOM     19  C   UNL     1     -23.288   6.849 -17.805  0.00  0.00    +0.119 C 
BRANCH  19  20
ATOM     20  N   UNL     1     -24.170   5.820 -18.432  0.00  0.00    -0.302 NA
ATOM     21  C   UNL     1     -24.147   4.497 -17.662  0.00  0.00    +0.066 C 
ATOM     22  C   UNL     1     -25.093   3.439 -18.318  0.00  0.00    -0.064 C 
ATOM     23  N   UNL     1     -24.679   3.224 -19.775  0.00  0.00    +0.379 N 
ATOM     24  C   UNL     1     -25.530   2.188 -20.379  0.00  0.00    -0.096 C 
ATOM     25  H   UNL     1     -23.631   2.846 -19.777  0.00  0.00    -0.082 HD
ATOM     26  C   UNL     1     -24.697   4.536 -20.548  0.00  0.00    -0.064 C 
ATOM     27  C   UNL     1     -23.777   5.589 -19.871  0.00  0.00    +0.066 C 
ENDBRANCH  19  20
ENDBRANCH  18  19
ENDBRANCH  14  15
ENDBRANCH  12  13
TORSDOF 6
ENDMDL
MODEL 2
REMARK VINA RESULT:      -8.8      4.560     13.148
REMARK  Name = C:\Users\Docking\Desktop\test protocol\1iep_ligandH.pdb
REMARK  8 active torsions:
REMARK  status: ('A' for Active; 'I' for Inactive)
REMARK    1  A    between atoms: _5  and  _11
REMARK    2  A    between atoms: _19  and  _21
REMARK    3  A    between atoms: _22  and  _66
REMARK    4  A    between atoms: _27  and  _30
REMARK    5  A    between atoms: _32  and  _33
REMARK    6  A    between atoms: _38  and  _43
REMARK    7  A    between atoms: _43  and  _46
REMARK    8  A    between atoms: _53  and  _55
REMARK                            x       y       z     vdW  Elec       q    Type
REMARK                         _______ _______ _______ _____ _____    ______ ____
ROOT
ATOM     10  C   UNL     1     -19.567  17.706 -18.880  0.00  0.00    +0.038 A 
ATOM     11  C   UNL     1     -18.219  17.871 -18.471  0.00  0.00    +0.047 A 
ATOM     12  C   UNL     1     -17.582  19.178 -18.488  0.00  0.00    +0.035 A 
ATOM     32  C   UNL     1     -18.348  20.297 -18.926  0.00  0.00    +0.024 A 
ATOM     33  C   UNL     1     -19.719  20.148 -19.347  0.00  0.00    +0.007 A 
ATOM     34  C   UNL     1     -20.352  18.861 -19.334  0.00  0.00    -0.029 A 
ATOM     35  C   UNL     1     -21.823  18.758 -19.802  0.00  0.00    +0.045 C 
ENDROOT
BRANCH  10   9
ATOM      4  C   UNL     1     -20.956  13.629 -20.999  0.00  0.00    +0.077 A 
ATOM      5  C   UNL     1     -20.552  14.096 -22.294  0.00  0.00    +0.048 A 
ATOM      6  C   UNL     1     -19.997  15.393 -22.373  0.00  0.00    +0.116 A 
ATOM      7  N   UNL     1     -19.862  16.158 -21.235  0.00  0.00    -0.223 NA
ATOM      8  C   UNL     1     -20.264  15.679 -20.001  0.00  0.00    +0.220 A 
ATOM      9  N   UNL     1     -20.129  16.428 -18.842  0.00  0.00    -0.283 N 
ATOM     36  H   UNL     1     -20.444  16.042 -17.953  0.00  0.00    +0.155 HD
ATOM     37  N   UNL     1     -20.797  14.444 -19.900  0.00  0.00    -0.214 NA
BRANCH   4   3
ATOM      1  C   UNL     1     -23.259  10.474 -21.201  0.00  0.00    +0.020 A 
ATOM      2  C   UNL     1     -22.720  11.786 -21.476  0.00  0.00    +0.013 A 
ATOM      3  C   UNL     1     -21.555  12.280 -20.752  0.00  0.00    +0.019 A 
ATOM     38  C   UNL     1     -20.954  11.414 -19.749  0.00  0.00    +0.120 A 
ATOM     39  N   UNL     1     -21.497  10.156 -19.504  0.00  0.00    -0.263 NA
ATOM     40  C   UNL     1     -22.618   9.671 -20.193  0.00  0.00    +0.111 A 
ENDBRANCH   4   3
ENDBRANCH  10   9
BRANCH  12  13
ATOM     13  N   UNL     1     -16.214  19.405 -18.092  0.00  0.00    -0.281 N 
ATOM     14  C   UNL     1     -15.752  20.043 -16.953  0.00  0.00    +0.248 C 
ATOM     30  O   UNL     1     -16.450  20.708 -16.202  0.00  0.00    -0.270 OA
ATOM     31  H   UNL     1     -15.499  19.052 -18.729  0.00  0.00    +0.155 HD
BRANCH  14  15
ATOM     15  C   UNL     1     -14.302  19.940 -16.605  0.00  0.00    +0.037 A 
ATOM     16  C   UNL     1     -13.335  19.363 -17.542  0.00  0.00    +0.013 A 
ATOM     17  C   UNL     1     -11.945  19.259 -17.174  0.00  0.00    +0.005 A 
ATOM     18  C   UNL     1     -11.514  19.737 -15.863  0.00  0.00    -0.033 A 
ATOM     28  C   UNL     1     -12.493  20.310 -14.955  0.00  0.00    +0.005 A 
ATOM     29  C   UNL     1     -13.857  20.412 -15.311  0.00  0.00    +0.013 A 
BRANCH  18  19
ATOM     19  C   UNL     1     -10.054  19.647 -15.378  0.00  0.00    +0.119 C 
BRANCH  19  20
ATOM     20  N   UNL     1      -9.403  18.303 -15.415  0.00  0.00    -0.302 NA
ATOM     21  C   UNL     1     -10.253  17.234 -14.722  0.00  0.00    +0.066 C 
ATOM     22  C   UNL     1      -9.568  15.830 -14.789  0.00  0.00    -0.064 C 
ATOM     23  N   UNL     1      -8.178  15.914 -14.154  0.00  0.00    +0.379 N 
ATOM     24  C   UNL     1      -7.555  14.582 -14.163  0.00  0.00    -0.096 C 
ATOM     25  H   UNL     1      -8.311  16.218 -13.090  0.00  0.00    -0.082 HD
ATOM     26  C   UNL     1      -7.328  16.976 -14.835  0.00  0.00    -0.064 C 
ATOM     27  C   UNL     1      -8.032  18.361 -14.789  0.00  0.00    +0.066 C 
ENDBRANCH  19  20
ENDBRANCH  18  19
ENDBRANCH  14  15
ENDBRANCH  12  13
TORSDOF 6
ENDMDL
MODEL 3
REMARK VINA RESULT:      -8.7      8.833     13.867
REMARK  Name = C:\Users\Docking\Desktop\test protocol\1iep_ligandH.pdb
REMARK  8 active torsions:
REMARK  status: ('A' for Active; 'I' for Inactive)
REMARK    1  A    between atoms: _5  and  _11
REMARK    2  A    between atoms: _19  and  _21
REMARK    3  A    between atoms: _22  and  _66
REMARK    4  A    between atoms: _27  and  _30
REMARK    5  A    between atoms: _32  and  _33
REMARK    6  A    between atoms: _38  and  _43
REMARK    7  A    between atoms: _43  and  _46
REMARK    8  A    between atoms: _53  and  _55
REMARK                            x       y       z     vdW  Elec       q    Type
REMARK                         _______ _______ _______ _____ _____    ______ ____
ROOT
ATOM     10  C   UNL     1      -9.057  19.508 -14.428  0.00  0.00    +0.038 A 
ATOM     11  C   UNL     1     -10.269  19.365 -15.152  0.00  0.00    +0.047 A 
ATOM     12  C   UNL     1     -11.490  20.021 -14.710  0.00  0.00    +0.035 A 
ATOM     32  C   UNL     1     -11.440  20.817 -13.529  0.00  0.00    +0.024 A 
ATOM     33  C   UNL     1     -10.218  20.971 -12.781  0.00  0.00    +0.007 A 
ATOM     34  C   UNL     1      -9.010  20.325 -13.210  0.00  0.00    -0.029 A 
ATOM     35  C   UNL     1      -7.730  20.520 -12.365  0.00  0.00    +0.045 C 
ENDROOT
BRANCH  10   9
ATOM      4  C   UNL     1      -6.433  15.553 -15.143  0.00  0.00    +0.077 A 
ATOM      5  C   UNL     1      -7.409  14.718 -14.504  0.00  0.00    +0.048 A 
ATOM      6  C   UNL     1      -8.570  15.347 -13.998  0.00  0.00    +0.116 A 
ATOM      7  N   UNL     1      -8.731  16.709 -14.128  0.00  0.00    -0.223 NA
ATOM      8  C   UNL     1      -7.769  17.485 -14.749  0.00  0.00    +0.220 A 
ATOM      9  N   UNL     1      -7.914  18.856 -14.897  0.00  0.00    -0.283 N 
ATOM     36  H   UNL     1      -7.179  19.394 -15.354  0.00  0.00    +0.155 HD
ATOM     37  N   UNL     1      -6.652  16.909 -15.238  0.00  0.00    -0.214 NA
BRANCH   4   3
ATOM      1  C   UNL     1      -2.967  13.792 -15.577  0.00  0.00    +0.020 A 
ATOM      2  C   UNL     1      -4.184  14.269 -14.962  0.00  0.00    +0.013 A 
ATOM      3  C   UNL     1      -5.157  15.036 -15.730  0.00  0.00    +0.019 A 
ATOM     38  C   UNL     1      -4.865  15.305 -17.130  0.00  0.00    +0.120 A 
ATOM     39  N   UNL     1      -3.684  14.835 -17.695  0.00  0.00    -0.263 NA
ATOM     40  C   UNL     1      -2.740  14.097 -16.965  0.00  0.00    +0.111 A 
ENDBRANCH   4   3
ENDBRANCH  10   9
BRANCH  12  13
ATOM     13  N   UNL     1     -12.751  19.907 -15.400  0.00  0.00    -0.281 N 
ATOM     14  C   UNL     1     -13.102  20.441 -16.628  0.00  0.00    +0.248 C 
ATOM     30  O   UNL     1     -12.449  21.283 -17.228  0.00  0.00    -0.270 OA
ATOM     31  H   UNL     1     -13.473  19.366 -14.923  0.00  0.00    +0.155 HD
BRANCH  14  15
ATOM     15  C   UNL     1     -14.368  19.986 -17.279  0.00  0.00    +0.037 A 
ATOM     16  C   UNL     1     -15.649  20.039 -16.570  0.00  0.00    +0.013 A 
ATOM     17  C   UNL     1     -16.852  19.577 -17.215  0.00  0.00    +0.005 A 
ATOM     18  C   UNL     1     -16.780  19.059 -18.579  0.00  0.00    -0.033 A 
ATOM     28  C   UNL     1     -15.497  19.023 -19.262  0.00  0.00    +0.005 A 
ATOM     29  C   UNL     1     -14.315  19.474 -18.632  0.00  0.00    +0.013 A 
BRANCH  18  19
ATOM     19  C   UNL     1     -18.010  18.526 -19.338  0.00  0.00    +0.119 C 
BRANCH  19  20
ATOM     20  N   UNL     1     -19.273  19.317 -19.235  0.00  0.00    -0.302 NA
ATOM     21  C   UNL     1     -20.285  18.662 -18.290  0.00  0.00    +0.066 C 
ATOM     22  C   UNL     1     -21.591  19.514 -18.176  0.00  0.00    -0.064 C 
ATOM     23  N   UNL     1     -22.195  19.705 -19.568  0.00  0.00    +0.379 N 
ATOM     24  C   UNL     1     -23.454  20.456 -19.458  0.00  0.00    -0.096 C 
ATOM     25  H   UNL     1     -22.438  18.695 -19.972  0.00  0.00    -0.082 HD
ATOM     26  C   UNL     1     -21.194  20.352 -20.515  0.00  0.00    -0.064 C 
ATOM     27  C   UNL     1     -19.889  19.513 -20.598  0.00  0.00    +0.066 C 
ENDBRANCH  19  20
ENDBRANCH  18  19
ENDBRANCH  14  15
ENDBRANCH  12  13
TORSDOF 6
ENDMDL
MODEL 4
REMARK VINA RESULT:      -8.7      7.653     13.478
REMARK  Name = C:\Users\Docking\Desktop\test protocol\1iep_ligandH.pdb
REMARK  8 active torsions:
REMARK  status: ('A' for Active; 'I' for Inactive)
REMARK    1  A    between atoms: _5  and  _11
REMARK    2  A    between atoms: _19  and  _21
REMARK    3  A    between atoms: _22  and  _66
REMARK    4  A    between atoms: _27  and  _30
REMARK    5  A    between atoms: _32  and  _33
REMARK    6  A    between atoms: _38  and  _43
REMARK    7  A    between atoms: _43  and  _46
REMARK    8  A    between atoms: _53  and  _55
REMARK                            x       y       z     vdW  Elec       q    Type
REMARK                         _______ _______ _______ _____ _____    ______ ____
ROOT
ATOM     10  C   UNL     1     -26.604   6.786 -22.352  0.00  0.00    +0.038 A 
ATOM     11  C   UNL     1     -26.599   8.170 -22.660  0.00  0.00    +0.047 A 
ATOM     12  C   UNL     1     -26.723   8.636 -24.032  0.00  0.00    +0.035 A 
ATOM     32  C   UNL     1     -26.853   7.664 -25.066  0.00  0.00    +0.024 A 
ATOM     33  C   UNL     1     -26.859   6.253 -24.771  0.00  0.00    +0.007 A 
ATOM     34  C   UNL     1     -26.734   5.787 -23.420  0.00  0.00    -0.029 A 
ATOM     35  C   UNL     1     -26.740   4.263 -23.163  0.00  0.00    +0.045 C 
ENDROOT
BRANCH  10   9
ATOM      4  C   UNL     1     -24.252   6.685 -18.169  0.00  0.00    +0.077 A 
ATOM      5  C   UNL     1     -23.162   7.454 -18.695  0.00  0.00    +0.048 A 
ATOM      6  C   UNL     1     -23.242   7.851 -20.049  0.00  0.00    +0.116 A 
ATOM      7  N   UNL     1     -24.336   7.498 -20.810  0.00  0.00    -0.223 NA
ATOM      8  C   UNL     1     -25.369   6.753 -20.272  0.00  0.00    +0.220 A 
ATOM      9  N   UNL     1     -26.482   6.394 -21.016  0.00  0.00    -0.283 N 
ATOM     36  H   UNL     1     -27.220   5.838 -20.585  0.00  0.00    +0.155 HD
ATOM     37  N   UNL     1     -25.316   6.362 -18.982  0.00  0.00    -0.214 NA
BRANCH   4   3
ATOM      1  C   UNL     1     -23.887   6.443 -14.282  0.00  0.00    +0.020 A 
ATOM      2  C   UNL     1     -23.801   6.961 -15.627  0.00  0.00    +0.013 A 
ATOM      3  C   UNL     1     -24.316   6.195 -16.755  0.00  0.00    +0.019 A 
ATOM     38  C   UNL     1     -24.916   4.897 -16.485  0.00  0.00    +0.120 A 
ATOM     39  N   UNL     1     -24.984   4.423 -15.179  0.00  0.00    -0.263 NA
ATOM     40  C   UNL     1     -24.491   5.151 -14.086  0.00  0.00    +0.111 A 
ENDBRANCH   4   3
ENDBRANCH  10   9
BRANCH  12  13
ATOM     13  N   UNL     1     -26.717  10.029 -24.406  0.00  0.00    -0.281 N 
ATOM     14  C   UNL     1     -25.744  10.716 -25.114  0.00  0.00    +0.248 C 
ATOM     30  O   UNL     1     -24.626  10.283 -25.350  0.00  0.00    -0.270 OA
ATOM     31  H   UNL     1     -27.528  10.574 -24.113  0.00  0.00    +0.155 HD
BRANCH  14  15
ATOM     15  C   UNL     1     -26.054  12.088 -25.621  0.00  0.00    +0.037 A 
ATOM     16  C   UNL     1     -27.235  12.821 -25.157  0.00  0.00    +0.013 A 
ATOM     17  C   UNL     1     -27.520  14.135 -25.675  0.00  0.00    +0.005 A 
ATOM     18  C   UNL     1     -26.619  14.727 -26.662  0.00  0.00    -0.033 A 
ATOM     28  C   UNL     1     -25.452  13.980 -27.101  0.00  0.00    +0.005 A 
ATOM     29  C   UNL     1     -25.171  12.690 -26.596  0.00  0.00    +0.013 A 
BRANCH  18  19
ATOM     19  C   UNL     1     -26.856  16.115 -27.285  0.00  0.00    +0.119 C 
BRANCH  19  20
ATOM     20  N   UNL     1     -26.742  17.298 -26.380  0.00  0.00    -0.302 NA
ATOM     21  C   UNL     1     -27.765  18.385 -26.724  0.00  0.00    +0.066 C 
ATOM     22  C   UNL     1     -27.646  19.606 -25.754  0.00  0.00    -0.064 C 
ATOM     23  N   UNL     1     -26.222  20.163 -25.813  0.00  0.00    +0.379 N 
ATOM     24  C   UNL     1     -26.123  21.346 -24.946  0.00  0.00    -0.096 C 
ATOM     25  H   UNL     1     -26.032  20.494 -26.860  0.00  0.00    -0.082 HD
ATOM     26  C   UNL     1     -25.199  19.088 -25.475  0.00  0.00    -0.064 C 
ATOM     27  C   UNL     1     -25.345  17.868 -26.426  0.00  0.00    +0.066 C 
ENDBRANCH  19  20
ENDBRANCH  18  19
ENDBRANCH  14  15
ENDBRANCH  12  13
TORSDOF 6
ENDMDL
MODEL 5
REMARK VINA RESULT:      -8.6      7.528     13.381
REMARK  Name = C:\Users\Docking\Desktop\test protocol\1iep_ligandH.pdb
REMARK  8 active torsions:
REMARK  status: ('A' for Active; 'I' for Inactive)
REMARK    1  A    between atoms: _5  and  _11
REMARK    2  A    between atoms: _19  and  _21
REMARK    3  A    between atoms: _22  and  _66
REMARK    4  A    between atoms: _27  and  _30
REMARK    5  A    between atoms: _32  and  _33
REMARK    6  A    between atoms: _38  and  _43
REMARK    7  A    between atoms: _43  and  _46
REMARK    8  A    between atoms: _53  and  _55
REMARK                            x       y       z     vdW  Elec       q    Type
REMARK                         _______ _______ _______ _____ _____    ______ ____
ROOT
ATOM     10  C   UNL     1      -9.145  19.716 -14.305  0.00  0.00    +0.038 A 
ATOM     11  C   UNL     1     -10.380  19.598 -14.992  0.00  0.00    +0.047 A 
ATOM     12  C   UNL     1     -11.577  20.270 -14.508  0.00  0.00    +0.035 A 
ATOM     32  C   UNL     1     -11.478  21.056 -13.324  0.00  0.00    +0.024 A 
ATOM     33  C   UNL     1     -10.231  21.186 -12.613  0.00  0.00    +0.007 A 
ATOM     34  C   UNL     1      -9.048  20.524 -13.083  0.00  0.00    -0.029 A 
ATOM     35  C   UNL     1      -7.739  20.693 -12.277  0.00  0.00    +0.045 C 
ENDROOT
BRANCH  10   9
ATOM      4  C   UNL     1      -6.651  15.716 -15.211  0.00  0.00    +0.077 A 
ATOM      5  C   UNL     1      -7.646  14.886 -14.595  0.00  0.00    +0.048 A 
ATOM      6  C   UNL     1      -8.781  15.528 -14.051  0.00  0.00    +0.116 A 
ATOM      7  N   UNL     1      -8.902  16.899 -14.123  0.00  0.00    -0.223 NA
ATOM      8  C   UNL     1      -7.923  17.670 -14.723  0.00  0.00    +0.220 A 
ATOM      9  N   UNL     1      -8.028  19.050 -14.813  0.00  0.00    -0.283 N 
ATOM     36  H   UNL     1      -7.281  19.584 -15.257  0.00  0.00    +0.155 HD
ATOM     37  N   UNL     1      -6.829  17.081 -15.248  0.00  0.00    -0.214 NA
BRANCH   4   3
ATOM      1  C   UNL     1      -3.270  13.831 -15.772  0.00  0.00    +0.020 A 
ATOM      2  C   UNL     1      -4.467  14.316 -15.124  0.00  0.00    +0.013 A 
ATOM      3  C   UNL     1      -5.397  15.185 -15.834  0.00  0.00    +0.019 A 
ATOM     38  C   UNL     1      -5.086  15.547 -17.208  0.00  0.00    +0.120 A 
ATOM     39  N   UNL     1      -3.925  15.065 -17.806  0.00  0.00    -0.263 NA
ATOM     40  C   UNL     1      -3.021  14.230 -17.132  0.00  0.00    +0.111 A 
ENDBRANCH   4   3
ENDBRANCH  10   9
BRANCH  12  13
ATOM     13  N   UNL     1     -12.861  20.180 -15.159  0.00  0.00    -0.281 N 
ATOM     14  C   UNL     1     -13.192  20.568 -16.447  0.00  0.00    +0.248 C 
ATOM     30  O   UNL     1     -12.480  21.252 -17.167  0.00  0.00    -0.270 OA
ATOM     31  H   UNL     1     -13.617  19.782 -14.602  0.00  0.00    +0.155 HD
BRANCH  14  15
ATOM     15  C   UNL     1     -14.510  20.148 -17.011  0.00  0.00    +0.037 A 
ATOM     16  C   UNL     1     -14.614  19.574 -18.355  0.00  0.00    +0.013 A 
ATOM     17  C   UNL     1     -15.900  19.192 -18.882  0.00  0.00    +0.005 A 
ATOM     18  C   UNL     1     -17.094  19.384 -18.063  0.00  0.00    -0.033 A 
ATOM     28  C   UNL     1     -16.963  19.951 -16.731  0.00  0.00    +0.005 A 
ATOM     29  C   UNL     1     -15.704  20.327 -16.212  0.00  0.00    +0.013 A 
BRANCH  18  19
ATOM     19  C   UNL     1     -18.510  19.025 -18.552  0.00  0.00    +0.119 C 
BRANCH  19  20
ATOM     20  N   UNL     1     -18.625  17.961 -19.594  0.00  0.00    -0.302 NA
ATOM     21  C   UNL     1     -19.532  18.386 -20.752  0.00  0.00    +0.066 C 
ATOM     22  C   UNL     1     -19.622  17.271 -21.843  0.00  0.00    -0.064 C 
ATOM     23  N   UNL     1     -20.130  15.976 -21.205  0.00  0.00    +0.379 N 
ATOM     24  C   UNL     1     -20.271  14.942 -22.239  0.00  0.00    -0.096 C 
ATOM     25  H   UNL     1     -21.144  16.180 -20.788  0.00  0.00    -0.082 HD
ATOM     26  C   UNL     1     -19.235  15.548 -20.050  0.00  0.00    -0.064 C 
ATOM     27  C   UNL     1     -19.128  16.675 -18.986  0.00  0.00    +0.066 C 
ENDBRANCH  19  20
ENDBRANCH  18  19
ENDBRANCH  14  15
ENDBRANCH  12  13
TORSDOF 6
ENDMDL
