MODEL 1
REMARK VINA RESULT:     -10.2      0.000      0.000
REMARK  Name = C:\Users\Docking\Desktop\test protocol\1iep_ligandH.pdb
REMARK  8 active torsions:
REMARK  status: ('A' for Active; 'I' for Inactive)
REMARK    1  A    between atoms: _5  and  _11
REMARK    2  A    between atoms: _19  and  _21
REMARK    3  A    between atoms: _22  and  _66
REMARK    4  A    between atoms: _27  and  _30
REMARK    5  A    between atoms: _32  and  _33
REMARK    6  A    between atoms: _38  and  _43
REMARK    7  A    between atoms: _43  and  _46
REMARK    8  A    between atoms: _53  and  _55
REMARK                            x       y       z     vdW  Elec       q    Type
REMARK                         _______ _______ _______ _____ _____    ______ ____
ROOT
ATOM     10  C   UNL     1      15.491  21.926  14.661  0.00  0.00    +0.038 A 
ATOM     11  C   UNL     1      16.515  22.888  14.857  0.00  0.00    +0.047 A 
ATOM     12  C   UNL     1      17.892  22.609  14.480  0.00  0.00    +0.035 A 
ATOM     32  C   UNL     1      18.190  21.340  13.903  0.00  0.00    +0.024 A 
ATOM     33  C   UNL     1      17.162  20.350  13.699  0.00  0.00    +0.007 A 
ATOM     34  C   UNL     1      15.803  20.619  14.071  0.00  0.00    -0.029 A 
ATOM     35  C   UNL     1      14.742  19.518  13.834  0.00  0.00    +0.045 C 
ENDROOT
BRANCH  10   9
ATOM      4  C   UNL     1      12.274  23.451  17.881  0.00  0.00    +0.077 A 
ATOM      5  C   UNL     1      13.274  23.594  18.899  0.00  0.00    +0.048 A 
ATOM      6  C   UNL     1      14.603  23.258  18.556  0.00  0.00    +0.116 A 
ATOM      7  N   UNL     1      14.898  22.813  17.286  0.00  0.00    -0.223 NA
ATOM      8  C   UNL     1      13.910  22.685  16.327  0.00  0.00    +0.220 A 
ATOM      9  N   UNL     1      14.186  22.247  15.041  0.00  0.00    -0.283 N 
ATOM     36  H   UNL     1      13.428  22.159  14.365  0.00  0.00    +0.155 HD
ATOM     37  N   UNL     1      12.633  22.998  16.631  0.00  0.00    -0.214 NA
BRANCH   4   3
ATOM      1  C   UNL     1       8.374  23.184  18.004  0.00  0.00    +0.020 A 
ATOM      2  C   UNL     1       9.756  22.827  17.785  0.00  0.00    +0.013 A 
ATOM      3  C   UNL     1      10.826  23.769  18.088  0.00  0.00    +0.019 A 
ATOM     38  C   UNL     1      10.460  25.074  18.618  0.00  0.00    +0.120 A 
ATOM     39  N   UNL     1       9.120  25.390  18.818  0.00  0.00    -0.263 NA
ATOM     40  C   UNL     1       8.082  24.493  18.527  0.00  0.00    +0.111 A 
ENDBRANCH   4   3
ENDBRANCH  10   9
BRANCH  12  13
ATOM     13  N   UNL     1      18.975  23.543  14.662  0.00  0.00    -0.281 N 
ATOM     14  C   UNL     1      19.417  24.517  13.781  0.00  0.00    +0.248 C 
ATOM     30  O   UNL     1      19.082  24.590  12.608  0.00  0.00    -0.270 OA
ATOM     31  H   UNL     1      19.476  23.479  15.548  0.00  0.00    +0.155 HD
BRANCH  14  15
ATOM     15  C   UNL     1      20.381  25.549  14.270  0.00  0.00    +0.037 A 
ATOM     16  C   UNL     1      20.048  26.975  14.237  0.00  0.00    +0.013 A 
ATOM     17  C   UNL     1      21.003  27.952  14.699  0.00  0.00    +0.005 A 
ATOM     18  C   UNL     1      22.300  27.503  15.199  0.00  0.00    -0.033 A 
ATOM     28  C   UNL     1      22.602  26.082  15.226  0.00  0.00    +0.005 A 
ATOM     29  C   UNL     1      21.669  25.122  14.773  0.00  0.00    +0.013 A 
BRANCH  18  19
ATOM     19  C   UNL     1      23.388  28.476  15.693  0.00  0.00    +0.119 C 
BRANCH  19  20
ATOM     20  N   UNL     1      24.765  27.928  15.871  0.00  0.00    -0.302 NA
ATOM     21  C   UNL     1      25.163  27.843  17.348  0.00  0.00    +0.066 C 
ATOM     22  C   UNL     1      26.598  27.247  17.517  0.00  0.00    -0.064 C 
ATOM     23  N   UNL     1      27.598  28.100  16.735  0.00  0.00    +0.379 N 
ATOM     24  C   UNL     1      28.956  27.576  16.940  0.00  0.00    -0.096 C 
ATOM     25  H   UNL     1      27.566  29.131  17.158  0.00  0.00    -0.082 HD
ATOM     26  C   UNL     1      27.208  28.191  15.267  0.00  0.00    -0.064 C 
ATOM     27  C   UNL     1      25.769  28.758  15.110  0.00  0.00    +0.066 C 
ENDBRANCH  19  20
ENDBRANCH  18  19
ENDBRANCH  14  15
ENDBRANCH  12  13
TORSDOF 6
ENDMDL
MODEL 2
REMARK VINA RESULT:      -9.8      2.015     12.516
REMARK  Name = C:\Users\Docking\Desktop\test protocol\1iep_ligandH.pdb
REMARK  8 active torsions:
REMARK  status: ('A' for Active; 'I' for Inactive)
REMARK    1  A    between atoms: _5  and  _11
REMARK    2  A    between atoms: _19  and  _21
REMARK    3  A    between atoms: _22  and  _66
REMARK    4  A    between atoms: _27  and  _30
REMARK    5  A    between atoms: _32  and  _33
REMARK    6  A    between atoms: _38  and  _43
REMARK    7  A    between atoms: _43  and  _46
REMARK    8  A    between atoms: _53  and  _55
REMARK                            x       y       z     vdW  Elec       q    Type
REMARK                         _______ _______ _______ _____ _____    ______ ____
ROOT
ATOM     10  C   UNL     1      19.756  23.322  14.390  0.00  0.00    +0.038 A 
ATOM     11  C   UNL     1      18.595  23.513  15.181  0.00  0.00    +0.047 A 
ATOM     12  C   UNL     1      17.318  22.934  14.795  0.00  0.00    +0.035 A 
ATOM     32  C   UNL     1      17.260  22.163  13.598  0.00  0.00    +0.024 A 
ATOM     33  C   UNL     1      18.430  21.959  12.781  0.00  0.00    +0.007 A 
ATOM     34  C   UNL     1      19.692  22.530  13.155  0.00  0.00    -0.029 A 
ATOM     35  C   UNL     1      20.913  22.285  12.238  0.00  0.00    +0.045 C 
ENDROOT
BRANCH  10   9
ATOM      4  C   UNL     1      22.561  27.131  15.202  0.00  0.00    +0.077 A 
ATOM      5  C   UNL     1      21.560  28.043  14.729  0.00  0.00    +0.048 A 
ATOM      6  C   UNL     1      20.340  27.491  14.279  0.00  0.00    +0.116 A 
ATOM      7  N   UNL     1      20.146  26.127  14.304  0.00  0.00    -0.223 NA
ATOM      8  C   UNL     1      21.133  25.275  14.765  0.00  0.00    +0.220 A 
ATOM      9  N   UNL     1      20.957  23.901  14.807  0.00  0.00    -0.283 N 
ATOM     36  H   UNL     1      21.712  23.306  15.147  0.00  0.00    +0.155 HD
ATOM     37  N   UNL     1      22.308  25.778  15.199  0.00  0.00    -0.214 NA
BRANCH   4   3
ATOM      1  C   UNL     1      25.533  29.313  16.510  0.00  0.00    +0.020 A 
ATOM      2  C   UNL     1      24.224  28.950  16.018  0.00  0.00    +0.013 A 
ATOM      3  C   UNL     1      23.901  27.562  15.713  0.00  0.00    +0.019 A 
ATOM     38  C   UNL     1      24.933  26.557  15.920  0.00  0.00    +0.120 A 
ATOM     39  N   UNL     1      26.185  26.936  16.394  0.00  0.00    -0.263 NA
ATOM     40  C   UNL     1      26.508  28.269  16.688  0.00  0.00    +0.111 A 
ENDBRANCH   4   3
ENDBRANCH  10   9
BRANCH  12  13
ATOM     13  N   UNL     1      16.103  23.101  15.555  0.00  0.00    -0.281 N 
ATOM     14  C   UNL     1      15.796  22.570  16.797  0.00  0.00    +0.248 C 
ATOM     30  O   UNL     1      16.439  21.691  17.351  0.00  0.00    -0.270 OA
ATOM     31  H   UNL     1      15.383  23.681  15.124  0.00  0.00    +0.155 HD
BRANCH  14  15
ATOM     15  C   UNL     1      14.591  23.078  17.521  0.00  0.00    +0.037 A 
ATOM     16  C   UNL     1      13.260  23.028  16.911  0.00  0.00    +0.013 A 
ATOM     17  C   UNL     1      12.118  23.541  17.625  0.00  0.00    +0.005 A 
ATOM     18  C   UNL     1      12.302  24.108  18.959  0.00  0.00    -0.033 A 
ATOM     28  C   UNL     1      13.633  24.140  19.542  0.00  0.00    +0.005 A 
ATOM     29  C   UNL     1      14.755  23.639  18.845  0.00  0.00    +0.013 A 
BRANCH  18  19
ATOM     19  C   UNL     1      11.143  24.697  19.784  0.00  0.00    +0.119 C 
BRANCH  19  20
ATOM     20  N   UNL     1       9.818  24.016  19.686  0.00  0.00    -0.302 NA
ATOM     21  C   UNL     1       8.869  24.741  18.727  0.00  0.00    +0.066 C 
ATOM     22  C   UNL     1       7.495  24.003  18.619  0.00  0.00    -0.064 C 
ATOM     23  N   UNL     1       6.872  23.884  20.011  0.00  0.00    +0.379 N 
ATOM     24  C   UNL     1       5.554  23.241  19.905  0.00  0.00    -0.096 C 
ATOM     25  H   UNL     1       6.715  24.916  20.400  0.00  0.00    -0.082 HD
ATOM     26  C   UNL     1       7.810  23.166  20.971  0.00  0.00    -0.064 C 
ATOM     27  C   UNL     1       9.183  23.892  21.049  0.00  0.00    +0.066 C 
ENDBRANCH  19  20
ENDBRANCH  18  19
ENDBRANCH  14  15
ENDBRANCH  12  13
TORSDOF 6
ENDMDL
MODEL 3
REMARK VINA RESULT:      -9.7      2.108     11.918
REMARK  Name = C:\Users\Docking\Desktop\test protocol\1iep_ligandH.pdb
REMARK  8 active torsions:
REMARK  status: ('A' for Active; 'I' for Inactive)
REMARK    1  A    between atoms: _5  and  _11
REMARK    2  A    between atoms: _19  and  _21
REMARK    3  A    between atoms: _22  and  _66
REMARK    4  A    between atoms: _27  and  _30
REMARK    5  A    between atoms: _32  and  _33
REMARK    6  A    between atoms: _38  and  _43
REMARK    7  A    between atoms: _43  and  _46
REMARK    8  A    between atoms: _53  and  _55
REMARK                            x       y       z     vdW  Elec       q    Type
REMARK                         _______ _______ _______ _____ _____    ______ ____
ROOT
ATOM     10  C   UNL     1      19.691  23.171  14.306  0.00  0.00    +0.038 A 
ATOM     11  C   UNL     1      18.455  23.276  14.993  0.00  0.00    +0.047 A 
ATOM     12  C   UNL     1      17.245  22.668  14.462  0.00  0.00    +0.035 A 
ATOM     32  C   UNL     1      17.332  21.958  13.228  0.00  0.00    +0.024 A 
ATOM     33  C   UNL     1      18.580  21.843  12.516  0.00  0.00    +0.007 A 
ATOM     34  C   UNL     1      19.776  22.443  13.034  0.00  0.00    -0.029 A 
ATOM     35  C   UNL     1      21.085  22.293  12.225  0.00  0.00    +0.045 C 
ENDROOT
BRANCH  10   9
ATOM      4  C   UNL     1      22.369  27.025  15.314  0.00  0.00    +0.077 A 
ATOM      5  C   UNL     1      21.451  27.909  14.654  0.00  0.00    +0.048 A 
ATOM      6  C   UNL     1      20.306  27.331  14.062  0.00  0.00    +0.116 A 
ATOM      7  N   UNL     1      20.104  25.969  14.131  0.00  0.00    -0.223 NA
ATOM      8  C   UNL     1      21.009  25.145  14.773  0.00  0.00    +0.220 A 
ATOM      9  N   UNL     1      20.822  23.775  14.862  0.00  0.00    -0.283 N 
ATOM     36  H   UNL     1      21.517  23.200  15.338  0.00  0.00    +0.155 HD
ATOM     37  N   UNL     1      22.111  25.673  15.346  0.00  0.00    -0.214 NA
BRANCH   4   3
ATOM      1  C   UNL     1      25.838  28.692  16.012  0.00  0.00    +0.020 A 
ATOM      2  C   UNL     1      24.646  28.272  15.312  0.00  0.00    +0.013 A 
ATOM      3  C   UNL     1      23.622  27.486  15.990  0.00  0.00    +0.019 A 
ATOM     38  C   UNL     1      23.838  27.139  17.387  0.00  0.00    +0.120 A 
ATOM     39  N   UNL     1      24.997  27.557  18.034  0.00  0.00    -0.263 NA
ATOM     40  C   UNL     1      25.989  28.312  17.392  0.00  0.00    +0.111 A 
ENDBRANCH   4   3
ENDBRANCH  10   9
BRANCH  12  13
ATOM     13  N   UNL     1      15.960  22.747  15.110  0.00  0.00    -0.281 N 
ATOM     14  C   UNL     1      15.562  22.137  16.289  0.00  0.00    +0.248 C 
ATOM     30  O   UNL     1      16.187  21.254  16.855  0.00  0.00    -0.270 OA
ATOM     31  H   UNL     1      15.259  23.323  14.645  0.00  0.00    +0.155 HD
BRANCH  14  15
ATOM     15  C   UNL     1      14.275  22.560  16.922  0.00  0.00    +0.037 A 
ATOM     16  C   UNL     1      14.259  23.403  18.119  0.00  0.00    +0.013 A 
ATOM     17  C   UNL     1      13.004  23.783  18.720  0.00  0.00    +0.005 A 
ATOM     18  C   UNL     1      11.755  23.319  18.121  0.00  0.00    -0.033 A 
ATOM     28  C   UNL     1      11.800  22.488  16.930  0.00  0.00    +0.005 A 
ATOM     29  C   UNL     1      13.028  22.113  16.339  0.00  0.00    +0.013 A 
BRANCH  18  19
ATOM     19  C   UNL     1      10.371  23.657  18.707  0.00  0.00    +0.119 C 
BRANCH  19  20
ATOM     20  N   UNL     1      10.291  24.814  19.648  0.00  0.00    -0.302 NA
ATOM     21  C   UNL     1       9.110  24.687  20.615  0.00  0.00    +0.066 C 
ATOM     22  C   UNL     1       9.055  25.893  21.608  0.00  0.00    -0.064 C 
ATOM     23  N   UNL     1       8.968  27.199  20.815  0.00  0.00    +0.379 N 
ATOM     24  C   UNL     1       8.857  28.331  21.746  0.00  0.00    -0.096 C 
ATOM     25  H   UNL     1       8.032  27.165  20.210  0.00  0.00    -0.082 HD
ATOM     26  C   UNL     1      10.137  27.332  19.849  0.00  0.00    -0.064 C 
ATOM     27  C   UNL     1      10.200  26.113  18.887  0.00  0.00    +0.066 C 
ENDBRANCH  19  20
ENDBRANCH  18  19
ENDBRANCH  14  15
ENDBRANCH  12  13
TORSDOF 6
ENDMDL
MODEL 4
REMARK VINA RESULT:      -9.7      3.035     13.048
REMARK  Name = C:\Users\Docking\Desktop\test protocol\1iep_ligandH.pdb
REMARK  8 active torsions:
REMARK  status: ('A' for Active; 'I' for Inactive)
REMARK    1  A    between atoms: _5  and  _11
REMARK    2  A    between atoms: _19  and  _21
REMARK    3  A    between atoms: _22  and  _66
REMARK    4  A    between atoms: _27  and  _30
REMARK    5  A    between atoms: _32  and  _33
REMARK    6  A    between atoms: _38  and  _43
REMARK    7  A    between atoms: _43  and  _46
REMARK    8  A    between atoms: _53  and  _55
REMARK                            x       y       z     vdW  Elec       q    Type
REMARK                         _______ _______ _______ _____ _____    ______ ____
ROOT
ATOM     10  C   UNL     1      16.169  22.045  14.409  0.00  0.00    +0.038 A 
ATOM     11  C   UNL     1      14.947  22.363  15.056  0.00  0.00    +0.047 A 
ATOM     12  C   UNL     1      13.902  21.365  15.223  0.00  0.00    +0.035 A 
ATOM     32  C   UNL     1      14.136  20.051  14.723  0.00  0.00    +0.024 A 
ATOM     33  C   UNL     1      15.372  19.711  14.062  0.00  0.00    +0.007 A 
ATOM     34  C   UNL     1      16.405  20.692  13.891  0.00  0.00    -0.029 A 
ATOM     35  C   UNL     1      17.707  20.272  13.170  0.00  0.00    +0.045 C 
ENDROOT
BRANCH  10   9
ATOM      4  C   UNL     1      19.105  25.367  16.247  0.00  0.00    +0.077 A 
ATOM      5  C   UNL     1      18.651  25.114  17.584  0.00  0.00    +0.048 A 
ATOM      6  C   UNL     1      17.656  24.125  17.755  0.00  0.00    +0.116 A 
ATOM      7  N   UNL     1      17.159  23.447  16.663  0.00  0.00    -0.223 NA
ATOM      8  C   UNL     1      17.617  23.717  15.387  0.00  0.00    +0.220 A 
ATOM      9  N   UNL     1      17.138  23.042  14.276  0.00  0.00    -0.283 N 
ATOM     36  H   UNL     1      17.496  23.276  13.350  0.00  0.00    +0.155 HD
ATOM     37  N   UNL     1      18.566  24.657  15.197  0.00  0.00    -0.214 NA
BRANCH   4   3
ATOM      1  C   UNL     1      21.356  27.893  14.285  0.00  0.00    +0.020 A 
ATOM      2  C   UNL     1      20.327  26.917  14.562  0.00  0.00    +0.013 A 
ATOM      3  C   UNL     1      20.154  26.379  15.905  0.00  0.00    +0.019 A 
ATOM     38  C   UNL     1      21.045  26.852  16.954  0.00  0.00    +0.120 A 
ATOM     39  N   UNL     1      22.028  27.792  16.656  0.00  0.00    -0.263 NA
ATOM     40  C   UNL     1      22.205  28.316  15.367  0.00  0.00    +0.111 A 
ENDBRANCH   4   3
ENDBRANCH  10   9
BRANCH  12  13
ATOM     13  N   UNL     1      12.638  21.632  15.864  0.00  0.00    -0.281 N 
ATOM     14  C   UNL     1      12.381  21.759  17.219  0.00  0.00    +0.248 C 
ATOM     30  O   UNL     1      13.164  21.448  18.104  0.00  0.00    -0.270 OA
ATOM     31  H   UNL     1      11.836  21.741  15.243  0.00  0.00    +0.155 HD
BRANCH  14  15
ATOM     15  C   UNL     1      11.055  22.295  17.655  0.00  0.00    +0.037 A 
ATOM     16  C   UNL     1      10.938  23.612  18.286  0.00  0.00    +0.013 A 
ATOM     17  C   UNL     1       9.650  24.097  18.713  0.00  0.00    +0.005 A 
ATOM     18  C   UNL     1       8.467  23.265  18.508  0.00  0.00    -0.033 A 
ATOM     28  C   UNL     1       8.611  21.965  17.874  0.00  0.00    +0.005 A 
ATOM     29  C   UNL     1       9.872  21.485  17.456  0.00  0.00    +0.013 A 
BRANCH  18  19
ATOM     19  C   UNL     1       7.055  23.694  18.950  0.00  0.00    +0.119 C 
BRANCH  19  20
ATOM     20  N   UNL     1       6.429  22.931  20.071  0.00  0.00    -0.302 NA
ATOM     21  C   UNL     1       5.026  22.432  19.713  0.00  0.00    +0.066 C 
ATOM     22  C   UNL     1       4.395  21.617  20.889  0.00  0.00    -0.064 C 
ATOM     23  N   UNL     1       4.356  22.488  22.146  0.00  0.00    +0.379 N 
ATOM     24  C   UNL     1       3.710  21.744  23.238  0.00  0.00    -0.096 C 
ATOM     25  H   UNL     1       3.722  23.377  21.921  0.00  0.00    -0.082 HD
ATOM     26  C   UNL     1       5.746  22.990  22.508  0.00  0.00    -0.064 C 
ATOM     27  C   UNL     1       6.376  23.774  21.322  0.00  0.00    +0.066 C 
ENDBRANCH  19  20
ENDBRANCH  18  19
ENDBRANCH  14  15
ENDBRANCH  12  13
TORSDOF 6
ENDMDL
MODEL 5
REMARK VINA RESULT:      -9.6      4.660      9.538
REMARK  Name = C:\Users\Docking\Desktop\test protocol\1iep_ligandH.pdb
REMARK  8 active torsions:
REMARK  status: ('A' for Active; 'I' for Inactive)
REMARK    1  A    between atoms: _5  and  _11
REMARK    2  A    between atoms: _19  and  _21
REMARK    3  A    between atoms: _22  and  _66
REMARK    4  A    between atoms: _27  and  _30
REMARK    5  A    between atoms: _32  and  _33
REMARK    6  A    between atoms: _38  and  _43
REMARK    7  A    between atoms: _43  and  _46
REMARK    8  A    between atoms: _53  and  _55
REMARK                            x       y       z     vdW  Elec       q    Type
REMARK                         _______ _______ _______ _____ _____    ______ ____
ROOT
ATOM     10  C   UNL     1       8.823  24.404  20.557  0.00  0.00    +0.038 A 
ATOM     11  C   UNL     1      10.008  24.033  19.873  0.00  0.00    +0.047 A 
ATOM     12  C   UNL     1       9.966  23.555  18.499  0.00  0.00    +0.035 A 
ATOM     32  C   UNL     1       8.698  23.470  17.853  0.00  0.00    +0.024 A 
ATOM     33  C   UNL     1       7.483  23.842  18.534  0.00  0.00    +0.007 A 
ATOM     34  C   UNL     1       7.519  24.312  19.889  0.00  0.00    -0.029 A 
ATOM     35  C   UNL     1       6.184  24.690  20.573  0.00  0.00    +0.045 C 
ENDROOT
BRANCH  10   9
ATOM      4  C   UNL     1       9.042  27.917  23.821  0.00  0.00    +0.077 A 
ATOM      5  C   UNL     1       8.982  28.937  22.814  0.00  0.00    +0.048 A 
ATOM      6  C   UNL     1       8.902  28.515  21.468  0.00  0.00    +0.116 A 
ATOM      7  N   UNL     1       8.884  27.172  21.163  0.00  0.00    -0.223 NA
ATOM      8  C   UNL     1       8.946  26.214  22.158  0.00  0.00    +0.220 A 
ATOM      9  N   UNL     1       8.922  24.857  21.875  0.00  0.00    -0.283 N 
ATOM     36  H   UNL     1       8.976  24.181  22.637  0.00  0.00    +0.155 HD
ATOM     37  N   UNL     1       9.024  26.590  23.451  0.00  0.00    -0.214 NA
BRANCH   4   3
ATOM      1  C   UNL     1       8.128  28.951  27.481  0.00  0.00    +0.020 A 
ATOM      2  C   UNL     1       7.994  28.690  26.066  0.00  0.00    +0.013 A 
ATOM      3  C   UNL     1       9.126  28.203  25.288  0.00  0.00    +0.019 A 
ATOM     38  C   UNL     1      10.389  27.988  25.978  0.00  0.00    +0.120 A 
ATOM     39  N   UNL     1      10.489  28.249  27.341  0.00  0.00    -0.263 NA
ATOM     40  C   UNL     1       9.406  28.719  28.099  0.00  0.00    +0.111 A 
ENDBRANCH   4   3
ENDBRANCH  10   9
BRANCH  12  13
ATOM     13  N   UNL     1      11.135  23.157  17.756  0.00  0.00    -0.281 N 
ATOM     14  C   UNL     1      11.370  21.948  17.122  0.00  0.00    +0.248 C 
ATOM     30  O   UNL     1      10.694  20.942  17.279  0.00  0.00    -0.270 OA
ATOM     31  H   UNL     1      11.881  23.850  17.690  0.00  0.00    +0.155 HD
BRANCH  14  15
ATOM     15  C   UNL     1      12.533  21.836  16.189  0.00  0.00    +0.037 A 
ATOM     16  C   UNL     1      13.310  23.015  15.799  0.00  0.00    +0.013 A 
ATOM     17  C   UNL     1      14.417  22.881  14.884  0.00  0.00    +0.005 A 
ATOM     18  C   UNL     1      14.753  21.562  14.355  0.00  0.00    -0.033 A 
ATOM     28  C   UNL     1      13.968  20.408  14.763  0.00  0.00    +0.005 A 
ATOM     29  C   UNL     1      12.882  20.535  15.658  0.00  0.00    +0.013 A 
BRANCH  18  19
ATOM     19  C   UNL     1      15.903  21.329  13.358  0.00  0.00    +0.119 C 
BRANCH  19  20
ATOM     20  N   UNL     1      17.149  22.128  13.553  0.00  0.00    -0.302 NA
ATOM     21  C   UNL     1      17.946  22.277  12.254  0.00  0.00    +0.066 C 
ATOM     22  C   UNL     1      19.235  23.134  12.471  0.00  0.00    -0.064 C 
ATOM     23  N   UNL     1      20.093  22.493  13.563  0.00  0.00    +0.379 N 
ATOM     24  C   UNL     1      21.333  23.265  13.729  0.00  0.00    -0.096 C 
ATOM     25  H   UNL     1      20.374  21.471  13.215  0.00  0.00    -0.082 HD
ATOM     26  C   UNL     1      19.308  22.339  14.857  0.00  0.00    -0.064 C 
ATOM     27  C   UNL     1      18.014  21.510  14.624  0.00  0.00    +0.066 C 
ENDBRANCH  19  20
ENDBRANCH  18  19
ENDBRANCH  14  15
ENDBRANCH  12  13
TORSDOF 6
ENDMDL
