MODEL 1
REMARK VINA RESULT:      -8.3      0.000      0.000
REMARK  Name = C:\Users\Docking\Desktop\test protocol\1iep_ligandH.pdb
REMARK  8 active torsions:
REMARK  status: ('A' for Active; 'I' for Inactive)
REMARK    1  A    between atoms: _5  and  _11
REMARK    2  A    between atoms: _19  and  _21
REMARK    3  A    between atoms: _22  and  _66
REMARK    4  A    between atoms: _27  and  _30
REMARK    5  A    between atoms: _32  and  _33
REMARK    6  A    between atoms: _38  and  _43
REMARK    7  A    between atoms: _43  and  _46
REMARK    8  A    between atoms: _53  and  _55
REMARK                            x       y       z     vdW  Elec       q    Type
REMARK                         _______ _______ _______ _____ _____    ______ ____
ROOT
ATOM     10  C   UNL     1      68.395  53.791  17.588  0.00  0.00    +0.038 A 
ATOM     11  C   UNL     1      68.915  55.040  17.160  0.00  0.00    +0.047 A 
ATOM     12  C   UNL     1      68.923  56.194  18.045  0.00  0.00    +0.035 A 
ATOM     32  C   UNL     1      68.396  56.041  19.360  0.00  0.00    +0.024 A 
ATOM     33  C   UNL     1      67.862  54.780  19.811  0.00  0.00    +0.007 A 
ATOM     34  C   UNL     1      67.849  53.638  18.942  0.00  0.00    -0.029 A 
ATOM     35  C   UNL     1      67.259  52.312  19.476  0.00  0.00    +0.045 C 
ENDROOT
BRANCH  10   9
ATOM      4  C   UNL     1      66.880  51.558  13.619  0.00  0.00    +0.077 A 
ATOM      5  C   UNL     1      65.957  52.610  13.308  0.00  0.00    +0.048 A 
ATOM      6  C   UNL     1      65.897  53.705  14.199  0.00  0.00    +0.116 A 
ATOM      7  N   UNL     1      66.706  53.735  15.314  0.00  0.00    -0.223 NA
ATOM      8  C   UNL     1      67.584  52.703  15.585  0.00  0.00    +0.220 A 
ATOM      9  N   UNL     1      68.413  52.716  16.697  0.00  0.00    -0.283 N 
ATOM     36  H   UNL     1      69.042  51.931  16.866  0.00  0.00    +0.155 HD
ATOM     37  N   UNL     1      67.659  51.645  14.751  0.00  0.00    -0.214 NA
BRANCH   4   3
ATOM      1  C   UNL     1      66.224  48.596  11.149  0.00  0.00    +0.020 A 
ATOM      2  C   UNL     1      65.997  49.778  11.948  0.00  0.00    +0.013 A 
ATOM      3  C   UNL     1      67.061  50.336  12.773  0.00  0.00    +0.019 A 
ATOM     38  C   UNL     1      68.355  49.668  12.766  0.00  0.00    +0.120 A 
ATOM     39  N   UNL     1      68.544  48.531  11.987  0.00  0.00    -0.263 NA
ATOM     40  C   UNL     1      67.526  47.984  11.191  0.00  0.00    +0.111 A 
ENDBRANCH   4   3
ENDBRANCH  10   9
BRANCH  12  13
ATOM     13  N   UNL     1      69.431  57.489  17.663  0.00  0.00    -0.281 N 
ATOM     14  C   UNL     1      70.716  57.816  17.264  0.00  0.00    +0.248 C 
ATOM     30  O   UNL     1      71.684  57.079  17.380  0.00  0.00    -0.270 OA
ATOM     31  H   UNL     1      68.761  58.258  17.691  0.00  0.00    +0.155 HD
BRANCH  14  15
ATOM     15  C   UNL     1      70.965  59.161  16.662  0.00  0.00    +0.037 A 
ATOM     16  C   UNL     1      71.774  59.313  15.450  0.00  0.00    +0.013 A 
ATOM     17  C   UNL     1      72.013  60.624  14.899  0.00  0.00    +0.005 A 
ATOM     18  C   UNL     1      71.440  61.794  15.562  0.00  0.00    -0.033 A 
ATOM     28  C   UNL     1      70.638  61.614  16.760  0.00  0.00    +0.005 A 
ATOM     29  C   UNL     1      70.403  60.331  17.303  0.00  0.00    +0.013 A 
BRANCH  18  19
ATOM     19  C   UNL     1      71.661  63.232  15.057  0.00  0.00    +0.119 C 
BRANCH  19  20
ATOM     20  N   UNL     1      72.017  63.404  13.617  0.00  0.00    -0.302 NA
ATOM     21  C   UNL     1      72.696  64.751  13.350  0.00  0.00    +0.066 C 
ATOM     22  C   UNL     1      73.082  64.905  11.843  0.00  0.00    -0.064 C 
ATOM     23  N   UNL     1      71.829  64.749  10.979  0.00  0.00    +0.379 N 
ATOM     24  C   UNL     1      72.179  64.950   9.566  0.00  0.00    -0.096 C 
ATOM     25  H   UNL     1      71.116  65.555  11.270  0.00  0.00    -0.082 HD
ATOM     26  C   UNL     1      71.147  63.413  11.241  0.00  0.00    -0.064 C 
ATOM     27  C   UNL     1      70.794  63.258  12.746  0.00  0.00    +0.066 C 
ENDBRANCH  19  20
ENDBRANCH  18  19
ENDBRANCH  14  15
ENDBRANCH  12  13
TORSDOF 6
ENDMDL
MODEL 2
REMARK VINA RESULT:      -8.1      1.738      2.446
REMARK  Name = C:\Users\Docking\Desktop\test protocol\1iep_ligandH.pdb
REMARK  8 active torsions:
REMARK  status: ('A' for Active; 'I' for Inactive)
REMARK    1  A    between atoms: _5  and  _11
REMARK    2  A    between atoms: _19  and  _21
REMARK    3  A    between atoms: _22  and  _66
REMARK    4  A    between atoms: _27  and  _30
REMARK    5  A    between atoms: _32  and  _33
REMARK    6  A    between atoms: _38  and  _43
REMARK    7  A    between atoms: _43  and  _46
REMARK    8  A    between atoms: _53  and  _55
REMARK                            x       y       z     vdW  Elec       q    Type
REMARK                         _______ _______ _______ _____ _____    ______ ____
ROOT
ATOM     10  C   UNL     1      68.358  53.671  18.296  0.00  0.00    +0.038 A 
ATOM     11  C   UNL     1      68.733  54.990  17.935  0.00  0.00    +0.047 A 
ATOM     12  C   UNL     1      68.777  56.057  18.923  0.00  0.00    +0.035 A 
ATOM     32  C   UNL     1      68.435  55.743  20.271  0.00  0.00    +0.024 A 
ATOM     33  C   UNL     1      68.051  54.408  20.655  0.00  0.00    +0.007 A 
ATOM     34  C   UNL     1      68.003  53.352  19.684  0.00  0.00    -0.029 A 
ATOM     35  C   UNL     1      67.577  51.941  20.151  0.00  0.00    +0.045 C 
ENDROOT
BRANCH  10   9
ATOM      4  C   UNL     1      66.909  51.977  14.045  0.00  0.00    +0.077 A 
ATOM      5  C   UNL     1      66.114  53.143  13.785  0.00  0.00    +0.048 A 
ATOM      6  C   UNL     1      66.100  54.152  14.774  0.00  0.00    +0.116 A 
ATOM      7  N   UNL     1      66.830  53.996  15.932  0.00  0.00    -0.223 NA
ATOM      8  C   UNL     1      67.585  52.859  16.152  0.00  0.00    +0.220 A 
ATOM      9  N   UNL     1      68.333  52.685  17.307  0.00  0.00    -0.283 N 
ATOM     36  H   UNL     1      68.871  51.829  17.434  0.00  0.00    +0.155 HD
ATOM     37  N   UNL     1      67.614  51.880  15.224  0.00  0.00    -0.214 NA
BRANCH   4   3
ATOM      1  C   UNL     1      66.119  49.301  11.303  0.00  0.00    +0.020 A 
ATOM      2  C   UNL     1      65.952  50.420  12.202  0.00  0.00    +0.013 A 
ATOM      3  C   UNL     1      67.030  50.826  13.095  0.00  0.00    +0.019 A 
ATOM     38  C   UNL     1      68.274  50.073  13.054  0.00  0.00    +0.120 A 
ATOM     39  N   UNL     1      68.406  49.000  12.179  0.00  0.00    -0.263 NA
ATOM     40  C   UNL     1      67.375  48.599  11.316  0.00  0.00    +0.111 A 
ENDBRANCH   4   3
ENDBRANCH  10   9
BRANCH  12  13
ATOM     13  N   UNL     1      69.143  57.417  18.614  0.00  0.00    -0.281 N 
ATOM     14  C   UNL     1      68.525  58.582  19.039  0.00  0.00    +0.248 C 
ATOM     30  O   UNL     1      67.430  58.626  19.578  0.00  0.00    -0.270 OA
ATOM     31  H   UNL     1      69.956  57.535  18.010  0.00  0.00    +0.155 HD
BRANCH  14  15
ATOM     15  C   UNL     1      69.218  59.888  18.818  0.00  0.00    +0.037 A 
ATOM     16  C   UNL     1      68.475  61.150  18.809  0.00  0.00    +0.013 A 
ATOM     17  C   UNL     1      69.165  62.394  18.577  0.00  0.00    +0.005 A 
ATOM     18  C   UNL     1      70.609  62.382  18.354  0.00  0.00    -0.033 A 
ATOM     28  C   UNL     1      71.322  61.115  18.375  0.00  0.00    +0.005 A 
ATOM     29  C   UNL     1      70.649  59.894  18.600  0.00  0.00    +0.013 A 
BRANCH  18  19
ATOM     19  C   UNL     1      71.424  63.659  18.078  0.00  0.00    +0.119 C 
BRANCH  19  20
ATOM     20  N   UNL     1      71.346  64.236  16.703  0.00  0.00    -0.302 NA
ATOM     21  C   UNL     1      71.721  63.212  15.628  0.00  0.00    +0.066 C 
ATOM     22  C   UNL     1      71.612  63.826  14.195  0.00  0.00    -0.064 C 
ATOM     23  N   UNL     1      72.509  65.062  14.103  0.00  0.00    +0.379 N 
ATOM     24  C   UNL     1      72.454  65.608  12.739  0.00  0.00    -0.096 C 
ATOM     25  H   UNL     1      73.557  64.734  14.294  0.00  0.00    -0.082 HD
ATOM     26  C   UNL     1      72.144  66.084  15.170  0.00  0.00    -0.064 C 
ATOM     27  C   UNL     1      72.227  65.456  16.589  0.00  0.00    +0.066 C 
ENDBRANCH  19  20
ENDBRANCH  18  19
ENDBRANCH  14  15
ENDBRANCH  12  13
TORSDOF 6
ENDMDL
MODEL 3
REMARK VINA RESULT:      -8.0      1.279      2.052
REMARK  Name = C:\Users\Docking\Desktop\test protocol\1iep_ligandH.pdb
REMARK  8 active torsions:
REMARK  status: ('A' for Active; 'I' for Inactive)
REMARK    1  A    between atoms: _5  and  _11
REMARK    2  A    between atoms: _19  and  _21
REMARK    3  A    between atoms: _22  and  _66
REMARK    4  A    between atoms: _27  and  _30
REMARK    5  A    between atoms: _32  and  _33
REMARK    6  A    between atoms: _38  and  _43
REMARK    7  A    between atoms: _43  and  _46
REMARK    8  A    between atoms: _53  and  _55
REMARK                            x       y       z     vdW  Elec       q    Type
REMARK                         _______ _______ _______ _____ _____    ______ ____
ROOT
ATOM     10  C   UNL     1      68.456  53.906  17.265  0.00  0.00    +0.038 A 
ATOM     11  C   UNL     1      69.024  55.088  16.725  0.00  0.00    +0.047 A 
ATOM     12  C   UNL     1      69.061  56.323  17.492  0.00  0.00    +0.035 A 
ATOM     32  C   UNL     1      68.513  56.318  18.808  0.00  0.00    +0.024 A 
ATOM     33  C   UNL     1      67.930  55.126  19.372  0.00  0.00    +0.007 A 
ATOM     34  C   UNL     1      67.888  53.905  18.619  0.00  0.00    -0.029 A 
ATOM     35  C   UNL     1      67.246  52.659  19.272  0.00  0.00    +0.045 C 
ENDROOT
BRANCH  10   9
ATOM      4  C   UNL     1      66.836  51.302  13.572  0.00  0.00    +0.077 A 
ATOM      5  C   UNL     1      65.910  52.326  13.181  0.00  0.00    +0.048 A 
ATOM      6  C   UNL     1      65.877  53.504  13.960  0.00  0.00    +0.116 A 
ATOM      7  N   UNL     1      66.712  53.638  15.048  0.00  0.00    -0.223 NA
ATOM      8  C   UNL     1      67.592  52.631  15.399  0.00  0.00    +0.220 A 
ATOM      9  N   UNL     1      68.447  52.747  16.485  0.00  0.00    -0.283 N 
ATOM     36  H   UNL     1      69.076  51.979  16.716  0.00  0.00    +0.155 HD
ATOM     37  N   UNL     1      67.642  51.495  14.672  0.00  0.00    -0.214 NA
BRANCH   4   3
ATOM      1  C   UNL     1      66.345  48.353  11.050  0.00  0.00    +0.020 A 
ATOM      2  C   UNL     1      66.154  49.621  11.716  0.00  0.00    +0.013 A 
ATOM      3  C   UNL     1      66.991  50.002  12.847  0.00  0.00    +0.019 A 
ATOM     38  C   UNL     1      68.021  49.071  13.282  0.00  0.00    +0.120 A 
ATOM     39  N   UNL     1      68.181  47.856  12.622  0.00  0.00    -0.263 NA
ATOM     40  C   UNL     1      67.381  47.478  11.534  0.00  0.00    +0.111 A 
ENDBRANCH   4   3
ENDBRANCH  10   9
BRANCH  12  13
ATOM     13  N   UNL     1      69.618  57.556  16.993  0.00  0.00    -0.281 N 
ATOM     14  C   UNL     1      70.942  57.834  16.698  0.00  0.00    +0.248 C 
ATOM     30  O   UNL     1      71.886  57.128  17.021  0.00  0.00    -0.270 OA
ATOM     31  H   UNL     1      68.955  58.316  16.840  0.00  0.00    +0.155 HD
BRANCH  14  15
ATOM     15  C   UNL     1      71.267  59.085  15.946  0.00  0.00    +0.037 A 
ATOM     16  C   UNL     1      70.548  60.335  16.204  0.00  0.00    +0.013 A 
ATOM     17  C   UNL     1      70.869  61.523  15.453  0.00  0.00    +0.005 A 
ATOM     18  C   UNL     1      71.917  61.466  14.437  0.00  0.00    -0.033 A 
ATOM     28  C   UNL     1      72.619  60.214  14.205  0.00  0.00    +0.005 A 
ATOM     29  C   UNL     1      72.306  59.047  14.939  0.00  0.00    +0.013 A 
BRANCH  18  19
ATOM     19  C   UNL     1      72.312  62.679  13.574  0.00  0.00    +0.119 C 
BRANCH  19  20
ATOM     20  N   UNL     1      72.655  63.944  14.289  0.00  0.00    -0.302 NA
ATOM     21  C   UNL     1      71.425  64.825  14.521  0.00  0.00    +0.066 C 
ATOM     22  C   UNL     1      71.798  66.134  15.289  0.00  0.00    -0.064 C 
ATOM     23  N   UNL     1      72.869  66.895  14.505  0.00  0.00    +0.379 N 
ATOM     24  C   UNL     1      73.181  68.155  15.196  0.00  0.00    -0.096 C 
ATOM     25  H   UNL     1      72.439  67.152  13.509  0.00  0.00    -0.082 HD
ATOM     26  C   UNL     1      74.095  66.025  14.268  0.00  0.00    -0.064 C 
ATOM     27  C   UNL     1      73.708  64.713  13.529  0.00  0.00    +0.066 C 
ENDBRANCH  19  20
ENDBRANCH  18  19
ENDBRANCH  14  15
ENDBRANCH  12  13
TORSDOF 6
ENDMDL
MODEL 4
REMARK VINA RESULT:      -8.0     16.769     20.305
REMARK  Name = C:\Users\Docking\Desktop\test protocol\1iep_ligandH.pdb
REMARK  8 active torsions:
REMARK  status: ('A' for Active; 'I' for Inactive)
REMARK    1  A    between atoms: _5  and  _11
REMARK    2  A    between atoms: _19  and  _21
REMARK    3  A    between atoms: _22  and  _66
REMARK    4  A    between atoms: _27  and  _30
REMARK    5  A    between atoms: _32  and  _33
REMARK    6  A    between atoms: _38  and  _43
REMARK    7  A    between atoms: _43  and  _46
REMARK    8  A    between atoms: _53  and  _55
REMARK                            x       y       z     vdW  Elec       q    Type
REMARK                         _______ _______ _______ _____ _____    ______ ____
ROOT
ATOM     10  C   UNL     1      75.766  71.046   5.333  0.00  0.00    +0.038 A 
ATOM     11  C   UNL     1      74.411  70.648   5.203  0.00  0.00    +0.047 A 
ATOM     12  C   UNL     1      73.630  71.010   4.030  0.00  0.00    +0.035 A 
ATOM     32  C   UNL     1      74.262  71.776   3.008  0.00  0.00    +0.024 A 
ATOM     33  C   UNL     1      75.638  72.190   3.124  0.00  0.00    +0.007 A 
ATOM     34  C   UNL     1      76.413  71.838   4.280  0.00  0.00    -0.029 A 
ATOM     35  C   UNL     1      77.882  72.314   4.355  0.00  0.00    +0.045 C 
ENDROOT
BRANCH  10   9
ATOM      4  C   UNL     1      77.410  71.904   9.760  0.00  0.00    +0.077 A 
ATOM      5  C   UNL     1      76.844  73.222   9.779  0.00  0.00    +0.048 A 
ATOM      6  C   UNL     1      76.143  73.644   8.626  0.00  0.00    +0.116 A 
ATOM      7  N   UNL     1      76.024  72.801   7.542  0.00  0.00    -0.223 NA
ATOM      8  C   UNL     1      76.584  71.537   7.556  0.00  0.00    +0.220 A 
ATOM      9  N   UNL     1      76.469  70.670   6.480  0.00  0.00    -0.283 N 
ATOM     36  H   UNL     1      76.903  69.749   6.527  0.00  0.00    +0.155 HD
ATOM     37  N   UNL     1      77.259  71.111   8.644  0.00  0.00    -0.214 NA
BRANCH   4   3
ATOM      1  C   UNL     1      79.991  69.843  11.856  0.00  0.00    +0.020 A 
ATOM      2  C   UNL     1      79.284  70.384  10.718  0.00  0.00    +0.013 A 
ATOM      3  C   UNL     1      78.177  71.314  10.903  0.00  0.00    +0.019 A 
ATOM     38  C   UNL     1      77.808  71.680  12.262  0.00  0.00    +0.120 A 
ATOM     39  N   UNL     1      78.506  71.142  13.339  0.00  0.00    -0.263 NA
ATOM     40  C   UNL     1      79.572  70.245  13.173  0.00  0.00    +0.111 A 
ENDBRANCH   4   3
ENDBRANCH  10   9
BRANCH  12  13
ATOM     13  N   UNL     1      72.248  70.641   3.846  0.00  0.00    -0.281 N 
ATOM     14  C   UNL     1      71.740  69.417   3.443  0.00  0.00    +0.248 C 
ATOM     30  O   UNL     1      72.411  68.512   2.971  0.00  0.00    -0.270 OA
ATOM     31  H   UNL     1      71.562  71.371   4.036  0.00  0.00    +0.155 HD
BRANCH  14  15
ATOM     15  C   UNL     1      70.271  69.169   3.569  0.00  0.00    +0.037 A 
ATOM     16  C   UNL     1      69.738  68.268   4.594  0.00  0.00    +0.013 A 
ATOM     17  C   UNL     1      68.319  68.033   4.683  0.00  0.00    +0.005 A 
ATOM     18  C   UNL     1      67.422  68.701   3.743  0.00  0.00    -0.033 A 
ATOM     28  C   UNL     1      67.977  69.593   2.739  0.00  0.00    +0.005 A 
ATOM     29  C   UNL     1      69.368  69.826   2.648  0.00  0.00    +0.013 A 
BRANCH  18  19
ATOM     19  C   UNL     1      65.896  68.492   3.751  0.00  0.00    +0.119 C 
BRANCH  19  20
ATOM     20  N   UNL     1      65.165  68.747   2.474  0.00  0.00    -0.302 NA
ATOM     21  C   UNL     1      63.669  68.443   2.598  0.00  0.00    +0.066 C 
ATOM     22  C   UNL     1      62.915  68.736   1.260  0.00  0.00    -0.064 C 
ATOM     23  N   UNL     1      63.543  67.913   0.134  0.00  0.00    +0.379 N 
ATOM     24  C   UNL     1      62.800  68.143  -1.114  0.00  0.00    -0.096 C 
ATOM     25  H   UNL     1      63.433  66.837   0.400  0.00  0.00    -0.082 HD
ATOM     26  C   UNL     1      65.031  68.207   0.005  0.00  0.00    -0.064 C 
ATOM     27  C   UNL     1      65.766  67.941   1.348  0.00  0.00    +0.066 C 
ENDBRANCH  19  20
ENDBRANCH  18  19
ENDBRANCH  14  15
ENDBRANCH  12  13
TORSDOF 6
ENDMDL
MODEL 5
REMARK VINA RESULT:      -7.9      5.740     10.386
REMARK  Name = C:\Users\Docking\Desktop\test protocol\1iep_ligandH.pdb
REMARK  8 active torsions:
REMARK  status: ('A' for Active; 'I' for Inactive)
REMARK    1  A    between atoms: _5  and  _11
REMARK    2  A    between atoms: _19  and  _21
REMARK    3  A    between atoms: _22  and  _66
REMARK    4  A    between atoms: _27  and  _30
REMARK    5  A    between atoms: _32  and  _33
REMARK    6  A    between atoms: _38  and  _43
REMARK    7  A    between atoms: _43  and  _46
REMARK    8  A    between atoms: _53  and  _55
REMARK                            x       y       z     vdW  Elec       q    Type
REMARK                         _______ _______ _______ _____ _____    ______ ____
ROOT
ATOM     10  C   UNL     1      69.072  53.964  18.468  0.00  0.00    +0.038 A 
ATOM     11  C   UNL     1      68.296  54.022  19.654  0.00  0.00    +0.047 A 
ATOM     12  C   UNL     1      68.566  55.015  20.682  0.00  0.00    +0.035 A 
ATOM     32  C   UNL     1      69.633  55.936  20.468  0.00  0.00    +0.024 A 
ATOM     33  C   UNL     1      70.433  55.891  19.269  0.00  0.00    +0.007 A 
ATOM     34  C   UNL     1      70.172  54.912  18.252  0.00  0.00    -0.029 A 
ATOM     35  C   UNL     1      71.065  54.906  16.990  0.00  0.00    +0.045 C 
ENDROOT
BRANCH  10   9
ATOM      4  C   UNL     1      66.992  52.546  14.381  0.00  0.00    +0.077 A 
ATOM      5  C   UNL     1      66.441  53.849  14.140  0.00  0.00    +0.048 A 
ATOM      6  C   UNL     1      66.710  54.854  15.096  0.00  0.00    +0.116 A 
ATOM      7  N   UNL     1      67.475  54.567  16.206  0.00  0.00    -0.223 NA
ATOM      8  C   UNL     1      67.990  53.300  16.409  0.00  0.00    +0.220 A 
ATOM      9  N   UNL     1      68.768  52.991  17.514  0.00  0.00    -0.283 N 
ATOM     36  H   UNL     1      69.123  52.042  17.631  0.00  0.00    +0.155 HD
ATOM     37  N   UNL     1      67.746  52.322  15.511  0.00  0.00    -0.214 NA
BRANCH   4   3
ATOM      1  C   UNL     1      65.445  50.034  11.813  0.00  0.00    +0.020 A 
ATOM      2  C   UNL     1      65.581  51.176  12.687  0.00  0.00    +0.013 A 
ATOM      3  C   UNL     1      66.798  51.380  13.462  0.00  0.00    +0.019 A 
ATOM     38  C   UNL     1      67.868  50.403  13.328  0.00  0.00    +0.120 A 
ATOM     39  N   UNL     1      67.708  49.312  12.480  0.00  0.00    -0.263 NA
ATOM     40  C   UNL     1      66.541  49.104  11.730  0.00  0.00    +0.111 A 
ENDBRANCH   4   3
ENDBRANCH  10   9
BRANCH  12  13
ATOM     13  N   UNL     1      67.818  55.117  21.910  0.00  0.00    -0.281 N 
ATOM     14  C   UNL     1      68.150  54.608  23.155  0.00  0.00    +0.248 C 
ATOM     30  O   UNL     1      69.044  53.799  23.354  0.00  0.00    -0.270 OA
ATOM     31  H   UNL     1      66.936  55.627  21.855  0.00  0.00    +0.155 HD
BRANCH  14  15
ATOM     15  C   UNL     1      67.366  55.049  24.348  0.00  0.00    +0.037 A 
ATOM     16  C   UNL     1      67.671  56.308  25.034  0.00  0.00    +0.013 A 
ATOM     17  C   UNL     1      66.910  56.702  26.193  0.00  0.00    +0.005 A 
ATOM     18  C   UNL     1      65.836  55.836  26.674  0.00  0.00    -0.033 A 
ATOM     28  C   UNL     1      65.552  54.596  25.971  0.00  0.00    +0.005 A 
ATOM     29  C   UNL     1      66.296  54.205  24.835  0.00  0.00    +0.013 A 
BRANCH  18  19
ATOM     19  C   UNL     1      64.987  56.167  27.915  0.00  0.00    +0.119 C 
BRANCH  19  20
ATOM     20  N   UNL     1      63.603  56.676  27.682  0.00  0.00    -0.302 NA
ATOM     21  C   UNL     1      62.558  55.559  27.767  0.00  0.00    +0.066 C 
ATOM     22  C   UNL     1      61.114  56.113  27.543  0.00  0.00    -0.064 C 
ATOM     23  N   UNL     1      61.045  56.815  26.186  0.00  0.00    +0.379 N 
ATOM     24  C   UNL     1      59.673  57.286  25.946  0.00  0.00    -0.096 C 
ATOM     25  H   UNL     1      61.286  56.060  25.402  0.00  0.00    -0.082 HD
ATOM     26  C   UNL     1      62.082  57.925  26.091  0.00  0.00    -0.064 C 
ATOM     27  C   UNL     1      63.511  57.370  26.345  0.00  0.00    +0.066 C 
ENDBRANCH  19  20
ENDBRANCH  18  19
ENDBRANCH  14  15
ENDBRANCH  12  13
TORSDOF 6
ENDMDL
