MODEL 1
REMARK VINA RESULT:      -8.2      0.000      0.000
REMARK  Name = C:\Users\Docking\Desktop\test protocol\1iep_ligandH.pdb
REMARK  8 active torsions:
REMARK  status: ('A' for Active; 'I' for Inactive)
REMARK    1  A    between atoms: _5  and  _11
REMARK    2  A    between atoms: _19  and  _21
REMARK    3  A    between atoms: _22  and  _66
REMARK    4  A    between atoms: _27  and  _30
REMARK    5  A    between atoms: _32  and  _33
REMARK    6  A    between atoms: _38  and  _43
REMARK    7  A    between atoms: _43  and  _46
REMARK    8  A    between atoms: _53  and  _55
REMARK                            x       y       z     vdW  Elec       q    Type
REMARK                         _______ _______ _______ _____ _____    ______ ____
ROOT
ATOM     10  C   UNL     1      68.810  54.010  17.238  0.00  0.00    +0.038 A 
ATOM     11  C   UNL     1      69.434  55.179  16.734  0.00  0.00    +0.047 A 
ATOM     12  C   UNL     1      69.480  56.404  17.517  0.00  0.00    +0.035 A 
ATOM     32  C   UNL     1      68.882  56.402  18.811  0.00  0.00    +0.024 A 
ATOM     33  C   UNL     1      68.242  55.222  19.338  0.00  0.00    +0.007 A 
ATOM     34  C   UNL     1      68.191  54.012  18.569  0.00  0.00    -0.029 A 
ATOM     35  C   UNL     1      67.486  52.779  19.182  0.00  0.00    +0.045 C 
ENDROOT
BRANCH  10   9
ATOM      4  C   UNL     1      67.121  51.428  13.560  0.00  0.00    +0.077 A 
ATOM      5  C   UNL     1      66.170  52.443  13.208  0.00  0.00    +0.048 A 
ATOM      6  C   UNL     1      66.142  53.611  14.003  0.00  0.00    +0.116 A 
ATOM      7  N   UNL     1      67.007  53.743  15.068  0.00  0.00    -0.223 NA
ATOM      8  C   UNL     1      67.911  52.745  15.382  0.00  0.00    +0.220 A 
ATOM      9  N   UNL     1      68.795  52.861  16.443  0.00  0.00    -0.283 N 
ATOM     36  H   UNL     1      69.441  52.099  16.646  0.00  0.00    +0.155 HD
ATOM     37  N   UNL     1      67.956  51.620  14.639  0.00  0.00    -0.214 NA
BRANCH   4   3
ATOM      1  C   UNL     1      66.492  48.414  11.148  0.00  0.00    +0.020 A 
ATOM      2  C   UNL     1      66.297  49.667  11.841  0.00  0.00    +0.013 A 
ATOM      3  C   UNL     1      67.274  50.139  12.814  0.00  0.00    +0.019 A 
ATOM     38  C   UNL     1      68.446  49.315  13.064  0.00  0.00    +0.120 A 
ATOM     39  N   UNL     1      68.607  48.112  12.383  0.00  0.00    -0.263 NA
ATOM     40  C   UNL     1      67.673  47.647  11.445  0.00  0.00    +0.111 A 
ENDBRANCH   4   3
ENDBRANCH  10   9
BRANCH  12  13
ATOM     13  N   UNL     1      70.093  57.625  17.055  0.00  0.00    -0.281 N 
ATOM     14  C   UNL     1      71.285  57.770  16.363  0.00  0.00    +0.248 C 
ATOM     30  O   UNL     1      72.115  56.885  16.222  0.00  0.00    -0.270 OA
ATOM     31  H   UNL     1      69.588  58.486  17.263  0.00  0.00    +0.155 HD
BRANCH  14  15
ATOM     15  C   UNL     1      71.607  59.095  15.751  0.00  0.00    +0.037 A 
ATOM     16  C   UNL     1      72.609  59.218  14.689  0.00  0.00    +0.013 A 
ATOM     17  C   UNL     1      72.913  60.511  14.128  0.00  0.00    +0.005 A 
ATOM     18  C   UNL     1      72.212  61.691  14.628  0.00  0.00    -0.033 A 
ATOM     28  C   UNL     1      71.219  61.540  15.678  0.00  0.00    +0.005 A 
ATOM     29  C   UNL     1      70.919  60.275  16.231  0.00  0.00    +0.013 A 
BRANCH  18  19
ATOM     19  C   UNL     1      72.488  63.113  14.102  0.00  0.00    +0.119 C 
BRANCH  19  20
ATOM     20  N   UNL     1      72.727  63.265  12.636  0.00  0.00    -0.302 NA
ATOM     21  C   UNL     1      73.334  64.628  12.292  0.00  0.00    +0.066 C 
ATOM     22  C   UNL     1      73.599  64.762  10.757  0.00  0.00    -0.064 C 
ATOM     23  N   UNL     1      72.290  64.544   9.995  0.00  0.00    +0.379 N 
ATOM     24  C   UNL     1      72.524  64.726   8.555  0.00  0.00    -0.096 C 
ATOM     25  H   UNL     1      71.572  65.331  10.324  0.00  0.00    -0.082 HD
ATOM     26  C   UNL     1      71.679  63.191  10.334  0.00  0.00    -0.064 C 
ATOM     27  C   UNL     1      71.447  63.058  11.865  0.00  0.00    +0.066 C 
ENDBRANCH  19  20
ENDBRANCH  18  19
ENDBRANCH  14  15
ENDBRANCH  12  13
TORSDOF 6
ENDMDL
MODEL 2
REMARK VINA RESULT:      -8.0      1.503      2.274
REMARK  Name = C:\Users\Docking\Desktop\test protocol\1iep_ligandH.pdb
REMARK  8 active torsions:
REMARK  status: ('A' for Active; 'I' for Inactive)
REMARK    1  A    between atoms: _5  and  _11
REMARK    2  A    between atoms: _19  and  _21
REMARK    3  A    between atoms: _22  and  _66
REMARK    4  A    between atoms: _27  and  _30
REMARK    5  A    between atoms: _32  and  _33
REMARK    6  A    between atoms: _38  and  _43
REMARK    7  A    between atoms: _43  and  _46
REMARK    8  A    between atoms: _53  and  _55
REMARK                            x       y       z     vdW  Elec       q    Type
REMARK                         _______ _______ _______ _____ _____    ______ ____
ROOT
ATOM     10  C   UNL     1      68.784  53.654  17.079  0.00  0.00    +0.038 A 
ATOM     11  C   UNL     1      69.306  54.868  16.564  0.00  0.00    +0.047 A 
ATOM     12  C   UNL     1      69.341  56.076  17.375  0.00  0.00    +0.035 A 
ATOM     32  C   UNL     1      68.838  56.010  18.707  0.00  0.00    +0.024 A 
ATOM     33  C   UNL     1      68.304  54.784  19.246  0.00  0.00    +0.007 A 
ATOM     34  C   UNL     1      68.265  53.590  18.450  0.00  0.00    -0.029 A 
ATOM     35  C   UNL     1      67.674  52.306  19.077  0.00  0.00    +0.045 C 
ENDROOT
BRANCH  10   9
ATOM      4  C   UNL     1      67.142  51.174  13.312  0.00  0.00    +0.077 A 
ATOM      5  C   UNL     1      66.204  52.203  12.968  0.00  0.00    +0.048 A 
ATOM      6  C   UNL     1      66.170  53.352  13.791  0.00  0.00    +0.116 A 
ATOM      7  N   UNL     1      67.017  53.453  14.873  0.00  0.00    -0.223 NA
ATOM      8  C   UNL     1      67.909  52.441  15.178  0.00  0.00    +0.220 A 
ATOM      9  N   UNL     1      68.776  52.525  16.257  0.00  0.00    -0.283 N 
ATOM     36  H   UNL     1      69.414  51.754  16.452  0.00  0.00    +0.155 HD
ATOM     37  N   UNL     1      67.959  51.333  14.409  0.00  0.00    -0.214 NA
BRANCH   4   3
ATOM      1  C   UNL     1      66.440  48.111  10.982  0.00  0.00    +0.020 A 
ATOM      2  C   UNL     1      66.237  49.342  11.710  0.00  0.00    +0.013 A 
ATOM      3  C   UNL     1      67.299  49.902  12.538  0.00  0.00    +0.019 A 
ATOM     38  C   UNL     1      68.564  49.186  12.607  0.00  0.00    +0.120 A 
ATOM     39  N   UNL     1      68.730  48.002  11.896  0.00  0.00    -0.263 NA
ATOM     40  C   UNL     1      67.715  47.453  11.098  0.00  0.00    +0.111 A 
ENDBRANCH   4   3
ENDBRANCH  10   9
BRANCH  12  13
ATOM     13  N   UNL     1      69.851  57.339  16.904  0.00  0.00    -0.281 N 
ATOM     14  C   UNL     1      71.174  57.717  16.741  0.00  0.00    +0.248 C 
ATOM     30  O   UNL     1      72.129  57.094  17.182  0.00  0.00    -0.270 OA
ATOM     31  H   UNL     1      69.151  58.041  16.660  0.00  0.00    +0.155 HD
BRANCH  14  15
ATOM     15  C   UNL     1      71.479  58.974  15.994  0.00  0.00    +0.037 A 
ATOM     16  C   UNL     1      70.825  60.240  16.336  0.00  0.00    +0.013 A 
ATOM     17  C   UNL     1      71.125  61.435  15.588  0.00  0.00    +0.005 A 
ATOM     18  C   UNL     1      72.087  61.370  14.491  0.00  0.00    -0.033 A 
ATOM     28  C   UNL     1      72.726  60.103  14.176  0.00  0.00    +0.005 A 
ATOM     29  C   UNL     1      72.433  58.929  14.906  0.00  0.00    +0.013 A 
BRANCH  18  19
ATOM     19  C   UNL     1      72.453  62.591  13.625  0.00  0.00    +0.119 C 
BRANCH  19  20
ATOM     20  N   UNL     1      72.866  63.836  14.339  0.00  0.00    -0.302 NA
ATOM     21  C   UNL     1      71.707  64.827  14.482  0.00  0.00    +0.066 C 
ATOM     22  C   UNL     1      72.151  66.114  15.251  0.00  0.00    -0.064 C 
ATOM     23  N   UNL     1      73.330  66.760  14.520  0.00  0.00    +0.379 N 
ATOM     24  C   UNL     1      73.712  68.002  15.208  0.00  0.00    -0.096 C 
ATOM     25  H   UNL     1      72.984  67.033  13.496  0.00  0.00    -0.082 HD
ATOM     26  C   UNL     1      74.485  65.780  14.372  0.00  0.00    -0.064 C 
ATOM     27  C   UNL     1      74.026  64.492  13.633  0.00  0.00    +0.066 C 
ENDBRANCH  19  20
ENDBRANCH  18  19
ENDBRANCH  14  15
ENDBRANCH  12  13
TORSDOF 6
ENDMDL
MODEL 3
REMARK VINA RESULT:      -7.8      3.199      4.786
REMARK  Name = C:\Users\Docking\Desktop\test protocol\1iep_ligandH.pdb
REMARK  8 active torsions:
REMARK  status: ('A' for Active; 'I' for Inactive)
REMARK    1  A    between atoms: _5  and  _11
REMARK    2  A    between atoms: _19  and  _21
REMARK    3  A    between atoms: _22  and  _66
REMARK    4  A    between atoms: _27  and  _30
REMARK    5  A    between atoms: _32  and  _33
REMARK    6  A    between atoms: _38  and  _43
REMARK    7  A    between atoms: _43  and  _46
REMARK    8  A    between atoms: _53  and  _55
REMARK                            x       y       z     vdW  Elec       q    Type
REMARK                         _______ _______ _______ _____ _____    ______ ____
ROOT
ATOM     10  C   UNL     1      72.268  55.999  14.723  0.00  0.00    +0.038 A 
ATOM     11  C   UNL     1      72.157  57.334  14.258  0.00  0.00    +0.047 A 
ATOM     12  C   UNL     1      72.956  58.402  14.837  0.00  0.00    +0.035 A 
ATOM     32  C   UNL     1      73.862  58.074  15.888  0.00  0.00    +0.024 A 
ATOM     33  C   UNL     1      73.987  56.722  16.374  0.00  0.00    +0.007 A 
ATOM     34  C   UNL     1      73.199  55.665  15.808  0.00  0.00    -0.029 A 
ATOM     35  C   UNL     1      73.370  54.236  16.372  0.00  0.00    +0.045 C 
ENDROOT
BRANCH  10   9
ATOM      4  C   UNL     1      68.129  53.618  14.240  0.00  0.00    +0.077 A 
ATOM      5  C   UNL     1      67.498  54.386  15.274  0.00  0.00    +0.048 A 
ATOM      6  C   UNL     1      68.276  55.379  15.911  0.00  0.00    +0.116 A 
ATOM      7  N   UNL     1      69.585  55.581  15.533  0.00  0.00    -0.223 NA
ATOM      8  C   UNL     1      70.164  54.822  14.532  0.00  0.00    +0.220 A 
ATOM      9  N   UNL     1      71.477  55.013  14.130  0.00  0.00    -0.283 N 
ATOM     36  H   UNL     1      71.869  54.427  13.393  0.00  0.00    +0.155 HD
ATOM     37  N   UNL     1      69.443  53.866  13.910  0.00  0.00    -0.214 NA
BRANCH   4   3
ATOM      1  C   UNL     1      65.368  51.353  12.642  0.00  0.00    +0.020 A 
ATOM      2  C   UNL     1      65.986  52.418  13.399  0.00  0.00    +0.013 A 
ATOM      3  C   UNL     1      67.437  52.535  13.471  0.00  0.00    +0.019 A 
ATOM     38  C   UNL     1      68.241  51.551  12.761  0.00  0.00    +0.120 A 
ATOM     39  N   UNL     1      67.618  50.536  12.042  0.00  0.00    -0.263 NA
ATOM     40  C   UNL     1      66.222  50.412  11.967  0.00  0.00    +0.111 A 
ENDBRANCH   4   3
ENDBRANCH  10   9
BRANCH  12  13
ATOM     13  N   UNL     1      72.880  59.778  14.412  0.00  0.00    -0.281 N 
ATOM     14  C   UNL     1      72.017  60.763  14.865  0.00  0.00    +0.248 C 
ATOM     30  O   UNL     1      71.032  60.554  15.557  0.00  0.00    -0.270 OA
ATOM     31  H   UNL     1      73.542  60.059  13.689  0.00  0.00    +0.155 HD
BRANCH  14  15
ATOM     15  C   UNL     1      72.279  62.183  14.481  0.00  0.00    +0.037 A 
ATOM     16  C   UNL     1      71.308  62.950  13.696  0.00  0.00    +0.013 A 
ATOM     17  C   UNL     1      71.593  64.313  13.325  0.00  0.00    +0.005 A 
ATOM     18  C   UNL     1      72.855  64.920  13.741  0.00  0.00    -0.033 A 
ATOM     28  C   UNL     1      73.798  64.138  14.523  0.00  0.00    +0.005 A 
ATOM     29  C   UNL     1      73.523  62.801  14.888  0.00  0.00    +0.013 A 
BRANCH  18  19
ATOM     19  C   UNL     1      73.252  66.362  13.372  0.00  0.00    +0.119 C 
BRANCH  19  20
ATOM     20  N   UNL     1      74.184  67.072  14.297  0.00  0.00    -0.302 NA
ATOM     21  C   UNL     1      73.516  68.271  14.977  0.00  0.00    +0.066 C 
ATOM     22  C   UNL     1      74.499  68.989  15.958  0.00  0.00    -0.064 C 
ATOM     23  N   UNL     1      75.749  69.428  15.194  0.00  0.00    +0.379 N 
ATOM     24  C   UNL     1      76.649  70.154  16.101  0.00  0.00    -0.096 C 
ATOM     25  H   UNL     1      75.426  70.137  14.397  0.00  0.00    -0.082 HD
ATOM     26  C   UNL     1      76.418  68.242  14.512  0.00  0.00    -0.064 C 
ATOM     27  C   UNL     1      75.424  67.518  13.562  0.00  0.00    +0.066 C 
ENDBRANCH  19  20
ENDBRANCH  18  19
ENDBRANCH  14  15
ENDBRANCH  12  13
TORSDOF 6
ENDMDL
MODEL 4
REMARK VINA RESULT:      -7.8      5.482     10.565
REMARK  Name = C:\Users\Docking\Desktop\test protocol\1iep_ligandH.pdb
REMARK  8 active torsions:
REMARK  status: ('A' for Active; 'I' for Inactive)
REMARK    1  A    between atoms: _5  and  _11
REMARK    2  A    between atoms: _19  and  _21
REMARK    3  A    between atoms: _22  and  _66
REMARK    4  A    between atoms: _27  and  _30
REMARK    5  A    between atoms: _32  and  _33
REMARK    6  A    between atoms: _38  and  _43
REMARK    7  A    between atoms: _43  and  _46
REMARK    8  A    between atoms: _53  and  _55
REMARK                            x       y       z     vdW  Elec       q    Type
REMARK                         _______ _______ _______ _____ _____    ______ ____
ROOT
ATOM     10  C   UNL     1      68.814  54.207  17.333  0.00  0.00    +0.038 A 
ATOM     11  C   UNL     1      68.334  54.084  18.662  0.00  0.00    +0.047 A 
ATOM     12  C   UNL     1      68.289  55.231  19.555  0.00  0.00    +0.035 A 
ATOM     32  C   UNL     1      68.739  56.490  19.060  0.00  0.00    +0.024 A 
ATOM     33  C   UNL     1      69.231  56.633  17.713  0.00  0.00    +0.007 A 
ATOM     34  C   UNL     1      69.280  55.504  16.828  0.00  0.00    -0.029 A 
ATOM     35  C   UNL     1      69.823  55.714  15.395  0.00  0.00    +0.045 C 
ENDROOT
BRANCH  10   9
ATOM      4  C   UNL     1      67.136  51.590  13.676  0.00  0.00    +0.077 A 
ATOM      5  C   UNL     1      66.114  52.552  13.379  0.00  0.00    +0.048 A 
ATOM      6  C   UNL     1      66.050  53.703  14.196  0.00  0.00    +0.116 A 
ATOM      7  N   UNL     1      66.946  53.870  15.229  0.00  0.00    -0.223 NA
ATOM      8  C   UNL     1      67.918  52.922  15.489  0.00  0.00    +0.220 A 
ATOM      9  N   UNL     1      68.835  53.072  16.519  0.00  0.00    -0.283 N 
ATOM     36  H   UNL     1      69.532  52.346  16.683  0.00  0.00    +0.155 HD
ATOM     37  N   UNL     1      68.000  51.813  14.725  0.00  0.00    -0.214 NA
BRANCH   4   3
ATOM      1  C   UNL     1      66.609  48.606  11.202  0.00  0.00    +0.020 A 
ATOM      2  C   UNL     1      66.370  49.834  11.924  0.00  0.00    +0.013 A 
ATOM      3  C   UNL     1      67.334  50.324  12.901  0.00  0.00    +0.019 A 
ATOM     38  C   UNL     1      68.540  49.541  13.126  0.00  0.00    +0.120 A 
ATOM     39  N   UNL     1      68.743  48.361  12.417  0.00  0.00    -0.263 NA
ATOM     40  C   UNL     1      67.821  47.879  11.475  0.00  0.00    +0.111 A 
ENDBRANCH   4   3
ENDBRANCH  10   9
BRANCH  12  13
ATOM     13  N   UNL     1      67.819  55.165  20.916  0.00  0.00    -0.281 N 
ATOM     14  C   UNL     1      68.551  54.875  22.056  0.00  0.00    +0.248 C 
ATOM     30  O   UNL     1      69.683  54.415  22.053  0.00  0.00    -0.270 OA
ATOM     31  H   UNL     1      66.827  55.356  21.057  0.00  0.00    +0.155 HD
BRANCH  14  15
ATOM     15  C   UNL     1      67.929  55.116  23.394  0.00  0.00    +0.037 A 
ATOM     16  C   UNL     1      68.457  56.135  24.305  0.00  0.00    +0.013 A 
ATOM     17  C   UNL     1      67.849  56.336  25.596  0.00  0.00    +0.005 A 
ATOM     18  C   UNL     1      66.704  55.515  25.984  0.00  0.00    -0.033 A 
ATOM     28  C   UNL     1      66.197  54.515  25.059  0.00  0.00    +0.005 A 
ATOM     29  C   UNL     1      66.791  54.315  23.793  0.00  0.00    +0.013 A 
BRANCH  18  19
ATOM     19  C   UNL     1      66.006  55.646  27.351  0.00  0.00    +0.119 C 
BRANCH  19  20
ATOM     20  N   UNL     1      64.622  56.207  27.361  0.00  0.00    -0.302 NA
ATOM     21  C   UNL     1      63.557  55.108  27.396  0.00  0.00    +0.066 C 
ATOM     22  C   UNL     1      62.115  55.713  27.429  0.00  0.00    -0.064 C 
ATOM     23  N   UNL     1      61.918  56.620  26.213  0.00  0.00    +0.379 N 
ATOM     24  C   UNL     1      60.545  57.144  26.210  0.00  0.00    -0.096 C 
ATOM     25  H   UNL     1      62.043  55.992  25.300  0.00  0.00    -0.082 HD
ATOM     26  C   UNL     1      62.975  57.714  26.169  0.00  0.00    -0.064 C 
ATOM     27  C   UNL     1      64.404  57.103  26.166  0.00  0.00    +0.066 C 
ENDBRANCH  19  20
ENDBRANCH  18  19
ENDBRANCH  14  15
ENDBRANCH  12  13
TORSDOF 6
ENDMDL
MODEL 5
REMARK VINA RESULT:      -7.8      5.695     12.298
REMARK  Name = C:\Users\Docking\Desktop\test protocol\1iep_ligandH.pdb
REMARK  8 active torsions:
REMARK  status: ('A' for Active; 'I' for Inactive)
REMARK    1  A    between atoms: _5  and  _11
REMARK    2  A    between atoms: _19  and  _21
REMARK    3  A    between atoms: _22  and  _66
REMARK    4  A    between atoms: _27  and  _30
REMARK    5  A    between atoms: _32  and  _33
REMARK    6  A    between atoms: _38  and  _43
REMARK    7  A    between atoms: _43  and  _46
REMARK    8  A    between atoms: _53  and  _55
REMARK                            x       y       z     vdW  Elec       q    Type
REMARK                         _______ _______ _______ _____ _____    ______ ____
ROOT
ATOM     10  C   UNL     1      67.879  55.523  18.912  0.00  0.00    +0.038 A 
ATOM     11  C   UNL     1      67.497  54.449  18.068  0.00  0.00    +0.047 A 
ATOM     12  C   UNL     1      67.955  54.376  16.689  0.00  0.00    +0.035 A 
ATOM     32  C   UNL     1      68.803  55.414  16.203  0.00  0.00    +0.024 A 
ATOM     33  C   UNL     1      69.199  56.514  17.047  0.00  0.00    +0.007 A 
ATOM     34  C   UNL     1      68.749  56.592  18.407  0.00  0.00    -0.029 A 
ATOM     35  C   UNL     1      69.200  57.798  19.264  0.00  0.00    +0.045 C 
ENDROOT
BRANCH  10   9
ATOM      4  C   UNL     1      67.843  53.869  23.417  0.00  0.00    +0.077 A 
ATOM      5  C   UNL     1      68.821  52.863  23.119  0.00  0.00    +0.048 A 
ATOM      6  C   UNL     1      69.302  52.800  21.792  0.00  0.00    +0.116 A 
ATOM      7  N   UNL     1      68.834  53.683  20.843  0.00  0.00    -0.223 NA
ATOM      8  C   UNL     1      67.889  54.640  21.164  0.00  0.00    +0.220 A 
ATOM      9  N   UNL     1      67.410  55.543  20.228  0.00  0.00    -0.283 N 
ATOM     36  H   UNL     1      66.708  56.229  20.502  0.00  0.00    +0.155 HD
ATOM     37  N   UNL     1      67.412  54.720  22.424  0.00  0.00    -0.214 NA
BRANCH   4   3
ATOM      1  C   UNL     1      66.711  53.292  27.117  0.00  0.00    +0.020 A 
ATOM      2  C   UNL     1      67.309  53.054  25.823  0.00  0.00    +0.013 A 
ATOM      3  C   UNL     1      67.240  54.064  24.774  0.00  0.00    +0.019 A 
ATOM     38  C   UNL     1      66.556  55.313  25.069  0.00  0.00    +0.120 A 
ATOM     39  N   UNL     1      65.988  55.514  26.323  0.00  0.00    -0.263 NA
ATOM     40  C   UNL     1      66.046  54.549  27.340  0.00  0.00    +0.111 A 
ENDBRANCH   4   3
ENDBRANCH  10   9
BRANCH  12  13
ATOM     13  N   UNL     1      67.594  53.314  15.783  0.00  0.00    -0.281 N 
ATOM     14  C   UNL     1      66.877  53.409  14.602  0.00  0.00    +0.248 C 
ATOM     30  O   UNL     1      66.250  54.398  14.252  0.00  0.00    -0.270 OA
ATOM     31  H   UNL     1      67.906  52.378  16.044  0.00  0.00    +0.155 HD
BRANCH  14  15
ATOM     15  C   UNL     1      66.839  52.231  13.683  0.00  0.00    +0.037 A 
ATOM     16  C   UNL     1      65.587  51.790  13.065  0.00  0.00    +0.013 A 
ATOM     17  C   UNL     1      65.575  50.640  12.196  0.00  0.00    +0.005 A 
ATOM     18  C   UNL     1      66.822  49.923  11.939  0.00  0.00    -0.033 A 
ATOM     28  C   UNL     1      68.052  50.386  12.561  0.00  0.00    +0.005 A 
ATOM     29  C   UNL     1      68.066  51.512  13.414  0.00  0.00    +0.013 A 
BRANCH  18  19
ATOM     19  C   UNL     1      66.900  48.674  11.042  0.00  0.00    +0.119 C 
BRANCH  19  20
ATOM     20  N   UNL     1      67.599  47.477  11.596  0.00  0.00    -0.302 NA
ATOM     21  C   UNL     1      67.600  46.304  10.611  0.00  0.00    +0.066 C 
ATOM     22  C   UNL     1      68.356  45.068  11.199  0.00  0.00    -0.064 C 
ATOM     23  N   UNL     1      67.709  44.661  12.524  0.00  0.00    +0.379 N 
ATOM     24  C   UNL     1      68.381  43.463  13.050  0.00  0.00    -0.096 C 
ATOM     25  H   UNL     1      66.649  44.390  12.314  0.00  0.00    -0.082 HD
ATOM     26  C   UNL     1      67.702  45.822  13.509  0.00  0.00    -0.064 C 
ATOM     27  C   UNL     1      66.975  47.055  12.904  0.00  0.00    +0.066 C 
ENDBRANCH  19  20
ENDBRANCH  18  19
ENDBRANCH  14  15
ENDBRANCH  12  13
TORSDOF 6
ENDMDL
