MODEL 1
REMARK VINA RESULT:      -8.6      0.000      0.000
REMARK  Name = C:\Users\Docking\Desktop\test protocol\1iep_ligandH.pdb
REMARK  8 active torsions:
REMARK  status: ('A' for Active; 'I' for Inactive)
REMARK    1  A    between atoms: _5  and  _11
REMARK    2  A    between atoms: _19  and  _21
REMARK    3  A    between atoms: _22  and  _66
REMARK    4  A    between atoms: _27  and  _30
REMARK    5  A    between atoms: _32  and  _33
REMARK    6  A    between atoms: _38  and  _43
REMARK    7  A    between atoms: _43  and  _46
REMARK    8  A    between atoms: _53  and  _55
REMARK                            x       y       z     vdW  Elec       q    Type
REMARK                         _______ _______ _______ _____ _____    ______ ____
ROOT
ATOM     10  C   UNL     1     119.388  53.221  17.747  0.00  0.00    +0.038 A 
ATOM     11  C   UNL     1     119.803  54.474  17.229  0.00  0.00    +0.047 A 
ATOM     12  C   UNL     1     119.894  55.648  18.082  0.00  0.00    +0.035 A 
ATOM     32  C   UNL     1     119.557  55.510  19.460  0.00  0.00    +0.024 A 
ATOM     33  C   UNL     1     119.132  54.244  20.004  0.00  0.00    +0.007 A 
ATOM     34  C   UNL     1     119.038  53.082  19.166  0.00  0.00    -0.029 A 
ATOM     35  C   UNL     1     118.571  51.752  19.801  0.00  0.00    +0.045 C 
ENDROOT
BRANCH  10   9
ATOM      4  C   UNL     1     118.123  51.184  13.589  0.00  0.00    +0.077 A 
ATOM      5  C   UNL     1     117.526  52.397  13.109  0.00  0.00    +0.048 A 
ATOM      6  C   UNL     1     117.558  53.520  13.966  0.00  0.00    +0.116 A 
ATOM      7  N   UNL     1     118.148  53.426  15.208  0.00  0.00    -0.223 NA
ATOM      8  C   UNL     1     118.714  52.241  15.641  0.00  0.00    +0.220 A 
ATOM      9  N   UNL     1     119.319  52.126  16.883  0.00  0.00    -0.283 N 
ATOM     36  H   UNL     1     119.718  51.232  17.168  0.00  0.00    +0.155 HD
ATOM     37  N   UNL     1     118.694  51.154  14.842  0.00  0.00    -0.214 NA
BRANCH   4   3
ATOM      1  C   UNL     1     119.295  47.778  12.065  0.00  0.00    +0.020 A 
ATOM      2  C   UNL     1     119.299  48.992  12.847  0.00  0.00    +0.013 A 
ATOM      3  C   UNL     1     118.171  49.913  12.799  0.00  0.00    +0.019 A 
ATOM     38  C   UNL     1     117.044  49.573  11.943  0.00  0.00    +0.120 A 
ATOM     39  N   UNL     1     117.069  48.397  11.200  0.00  0.00    -0.263 NA
ATOM     40  C   UNL     1     118.150  47.504  11.237  0.00  0.00    +0.111 A 
ENDBRANCH   4   3
ENDBRANCH  10   9
BRANCH  12  13
ATOM     13  N   UNL     1     120.301  56.949  17.611  0.00  0.00    -0.281 N 
ATOM     14  C   UNL     1     121.578  57.375  17.286  0.00  0.00    +0.248 C 
ATOM     30  O   UNL     1     122.601  56.763  17.557  0.00  0.00    -0.270 OA
ATOM     31  H   UNL     1     119.557  57.638  17.503  0.00  0.00    +0.155 HD
BRANCH  14  15
ATOM     15  C   UNL     1     121.745  58.676  16.569  0.00  0.00    +0.037 A 
ATOM     16  C   UNL     1     122.819  58.874  15.593  0.00  0.00    +0.013 A 
ATOM     17  C   UNL     1     122.968  60.145  14.929  0.00  0.00    +0.005 A 
ATOM     18  C   UNL     1     122.037  61.227  15.238  0.00  0.00    -0.033 A 
ATOM     28  C   UNL     1     120.976  61.002  16.206  0.00  0.00    +0.005 A 
ATOM     29  C   UNL     1     120.829  59.758  16.860  0.00  0.00    +0.013 A 
BRANCH  18  19
ATOM     19  C   UNL     1     122.133  62.623  14.592  0.00  0.00    +0.119 C 
BRANCH  19  20
ATOM     20  N   UNL     1     122.833  62.721  13.277  0.00  0.00    -0.302 NA
ATOM     21  C   UNL     1     123.948  63.770  13.296  0.00  0.00    +0.066 C 
ATOM     22  C   UNL     1     124.684  63.844  11.919  0.00  0.00    -0.064 C 
ATOM     23  N   UNL     1     123.669  64.152  10.817  0.00  0.00    +0.379 N 
ATOM     24  C   UNL     1     124.367  64.279   9.529  0.00  0.00    -0.096 C 
ATOM     25  H   UNL     1     123.206  65.139  11.050  0.00  0.00    -0.082 HD
ATOM     26  C   UNL     1     122.556  63.115  10.792  0.00  0.00    -0.064 C 
ATOM     27  C   UNL     1     121.850  63.029  12.174  0.00  0.00    +0.066 C 
ENDBRANCH  19  20
ENDBRANCH  18  19
ENDBRANCH  14  15
ENDBRANCH  12  13
TORSDOF 6
ENDMDL
MODEL 2
REMARK VINA RESULT:      -8.5      5.361     12.118
REMARK  Name = C:\Users\Docking\Desktop\test protocol\1iep_ligandH.pdb
REMARK  8 active torsions:
REMARK  status: ('A' for Active; 'I' for Inactive)
REMARK    1  A    between atoms: _5  and  _11
REMARK    2  A    between atoms: _19  and  _21
REMARK    3  A    between atoms: _22  and  _66
REMARK    4  A    between atoms: _27  and  _30
REMARK    5  A    between atoms: _32  and  _33
REMARK    6  A    between atoms: _38  and  _43
REMARK    7  A    between atoms: _43  and  _46
REMARK    8  A    between atoms: _53  and  _55
REMARK                            x       y       z     vdW  Elec       q    Type
REMARK                         _______ _______ _______ _____ _____    ______ ____
ROOT
ATOM     10  C   UNL     1     117.897  55.354  18.347  0.00  0.00    +0.038 A 
ATOM     11  C   UNL     1     117.656  54.319  17.408  0.00  0.00    +0.047 A 
ATOM     12  C   UNL     1     117.923  54.512  15.991  0.00  0.00    +0.035 A 
ATOM     32  C   UNL     1     118.439  55.771  15.566  0.00  0.00    +0.024 A 
ATOM     33  C   UNL     1     118.689  56.834  16.507  0.00  0.00    +0.007 A 
ATOM     34  C   UNL     1     118.424  56.651  17.905  0.00  0.00    -0.029 A 
ATOM     35  C   UNL     1     118.705  57.828  18.868  0.00  0.00    +0.045 C 
ENDROOT
BRANCH  10   9
ATOM      4  C   UNL     1     119.052  53.571  22.651  0.00  0.00    +0.077 A 
ATOM      5  C   UNL     1     120.297  53.049  22.166  0.00  0.00    +0.048 A 
ATOM      6  C   UNL     1     120.599  53.254  20.801  0.00  0.00    +0.116 A 
ATOM      7  N   UNL     1     119.715  53.933  19.991  0.00  0.00    -0.223 NA
ATOM      8  C   UNL     1     118.522  54.422  20.490  0.00  0.00    +0.220 A 
ATOM      9  N   UNL     1     117.622  55.115  19.696  0.00  0.00    -0.283 N 
ATOM     36  H   UNL     1     116.749  55.454  20.100  0.00  0.00    +0.155 HD
ATOM     37  N   UNL     1     118.210  54.238  21.790  0.00  0.00    -0.214 NA
BRANCH   4   3
ATOM      1  C   UNL     1     117.025  53.973  25.972  0.00  0.00    +0.020 A 
ATOM      2  C   UNL     1     117.427  54.137  24.594  0.00  0.00    +0.013 A 
ATOM      3  C   UNL     1     118.593  53.438  24.070  0.00  0.00    +0.019 A 
ATOM     38  C   UNL     1     119.337  52.573  24.973  0.00  0.00    +0.120 A 
ATOM     39  N   UNL     1     118.928  52.436  26.296  0.00  0.00    -0.263 NA
ATOM     40  C   UNL     1     117.808  53.105  26.812  0.00  0.00    +0.111 A 
ENDBRANCH   4   3
ENDBRANCH  10   9
BRANCH  12  13
ATOM     13  N   UNL     1     117.691  53.500  14.990  0.00  0.00    -0.281 N 
ATOM     14  C   UNL     1     118.567  53.048  14.017  0.00  0.00    +0.248 C 
ATOM     30  O   UNL     1     119.616  53.600  13.722  0.00  0.00    -0.270 OA
ATOM     31  H   UNL     1     116.769  53.064  15.001  0.00  0.00    +0.155 HD
BRANCH  14  15
ATOM     15  C   UNL     1     118.219  51.813  13.250  0.00  0.00    +0.037 A 
ATOM     16  C   UNL     1     116.827  51.478  12.939  0.00  0.00    +0.013 A 
ATOM     17  C   UNL     1     116.518  50.272  12.212  0.00  0.00    +0.005 A 
ATOM     18  C   UNL     1     117.605  49.392  11.790  0.00  0.00    -0.033 A 
ATOM     28  C   UNL     1     118.978  49.752  12.107  0.00  0.00    +0.005 A 
ATOM     29  C   UNL     1     119.284  50.932  12.820  0.00  0.00    +0.013 A 
BRANCH  18  19
ATOM     19  C   UNL     1     117.367  48.075  11.029  0.00  0.00    +0.119 C 
BRANCH  19  20
ATOM     20  N   UNL     1     118.067  46.857  11.535  0.00  0.00    -0.302 NA
ATOM     21  C   UNL     1     117.720  45.612  10.714  0.00  0.00    +0.066 C 
ATOM     22  C   UNL     1     118.479  44.351  11.244  0.00  0.00    -0.064 C 
ATOM     23  N   UNL     1     118.141  44.138  12.720  0.00  0.00    +0.379 N 
ATOM     24  C   UNL     1     118.807  42.921  13.205  0.00  0.00    -0.096 C 
ATOM     25  H   UNL     1     117.040  43.975  12.794  0.00  0.00    -0.082 HD
ATOM     26  C   UNL     1     118.480  45.373  13.543  0.00  0.00    -0.064 C 
ATOM     27  C   UNL     1     117.744  46.625  12.991  0.00  0.00    +0.066 C 
ENDBRANCH  19  20
ENDBRANCH  18  19
ENDBRANCH  14  15
ENDBRANCH  12  13
TORSDOF 6
ENDMDL
MODEL 3
REMARK VINA RESULT:      -8.4      2.245     12.087
REMARK  Name = C:\Users\Docking\Desktop\test protocol\1iep_ligandH.pdb
REMARK  8 active torsions:
REMARK  status: ('A' for Active; 'I' for Inactive)
REMARK    1  A    between atoms: _5  and  _11
REMARK    2  A    between atoms: _19  and  _21
REMARK    3  A    between atoms: _22  and  _66
REMARK    4  A    between atoms: _27  and  _30
REMARK    5  A    between atoms: _32  and  _33
REMARK    6  A    between atoms: _38  and  _43
REMARK    7  A    between atoms: _43  and  _46
REMARK    8  A    between atoms: _53  and  _55
REMARK                            x       y       z     vdW  Elec       q    Type
REMARK                         _______ _______ _______ _____ _____    ______ ____
ROOT
ATOM     10  C   UNL     1     119.066  57.129  17.515  0.00  0.00    +0.038 A 
ATOM     11  C   UNL     1     118.720  56.279  16.433  0.00  0.00    +0.047 A 
ATOM     12  C   UNL     1     118.454  54.864  16.644  0.00  0.00    +0.035 A 
ATOM     32  C   UNL     1     118.547  54.349  17.969  0.00  0.00    +0.024 A 
ATOM     33  C   UNL     1     118.898  55.199  19.080  0.00  0.00    +0.007 A 
ATOM     34  C   UNL     1     119.164  56.595  18.878  0.00  0.00    -0.029 A 
ATOM     35  C   UNL     1     119.542  57.457  20.105  0.00  0.00    +0.045 C 
ENDROOT
BRANCH  10   9
ATOM      4  C   UNL     1     121.906  60.712  16.054  0.00  0.00    +0.077 A 
ATOM      5  C   UNL     1     123.005  59.821  15.812  0.00  0.00    +0.048 A 
ATOM      6  C   UNL     1     122.800  58.450  16.083  0.00  0.00    +0.116 A 
ATOM      7  N   UNL     1     121.583  58.013  16.560  0.00  0.00    -0.223 NA
ATOM      8  C   UNL     1     120.545  58.898  16.784  0.00  0.00    +0.220 A 
ATOM      9  N   UNL     1     119.310  58.480  17.256  0.00  0.00    -0.283 N 
ATOM     36  H   UNL     1     118.572  59.165  17.415  0.00  0.00    +0.155 HD
ATOM     37  N   UNL     1     120.716  60.213  16.535  0.00  0.00    -0.214 NA
BRANCH   4   3
ATOM      1  C   UNL     1     122.204  64.574  16.599  0.00  0.00    +0.020 A 
ATOM      2  C   UNL     1     122.153  63.159  16.885  0.00  0.00    +0.013 A 
ATOM      3  C   UNL     1     121.967  62.188  15.814  0.00  0.00    +0.019 A 
ATOM     38  C   UNL     1     121.837  62.686  14.453  0.00  0.00    +0.120 A 
ATOM     39  N   UNL     1     121.889  64.055  14.207  0.00  0.00    -0.263 NA
ATOM     40  C   UNL     1     122.066  64.998  15.230  0.00  0.00    +0.111 A 
ENDBRANCH   4   3
ENDBRANCH  10   9
BRANCH  12  13
ATOM     13  N   UNL     1     118.106  53.951  15.583  0.00  0.00    -0.281 N 
ATOM     14  C   UNL     1     118.843  53.639  14.453  0.00  0.00    +0.248 C 
ATOM     30  O   UNL     1     119.823  54.262  14.073  0.00  0.00    -0.270 OA
ATOM     31  H   UNL     1     117.208  53.477  15.678  0.00  0.00    +0.155 HD
BRANCH  14  15
ATOM     15  C   UNL     1     118.422  52.474  13.615  0.00  0.00    +0.037 A 
ATOM     16  C   UNL     1     117.009  52.120  13.461  0.00  0.00    +0.013 A 
ATOM     17  C   UNL     1     116.631  50.982  12.662  0.00  0.00    +0.005 A 
ATOM     18  C   UNL     1     117.670  50.190  12.008  0.00  0.00    -0.033 A 
ATOM     28  C   UNL     1     119.064  50.567  12.173  0.00  0.00    +0.005 A 
ATOM     29  C   UNL     1     119.438  51.681  12.957  0.00  0.00    +0.013 A 
BRANCH  18  19
ATOM     19  C   UNL     1     117.360  48.947  11.153  0.00  0.00    +0.119 C 
BRANCH  19  20
ATOM     20  N   UNL     1     117.388  47.621  11.839  0.00  0.00    -0.302 NA
ATOM     21  C   UNL     1     118.360  47.606  13.022  0.00  0.00    +0.066 C 
ATOM     22  C   UNL     1     118.359  46.219  13.743  0.00  0.00    -0.064 C 
ATOM     23  N   UNL     1     118.715  45.124  12.735  0.00  0.00    +0.379 N 
ATOM     24  C   UNL     1     118.772  43.825  13.422  0.00  0.00    -0.096 C 
ATOM     25  H   UNL     1     119.736  45.345  12.343  0.00  0.00    -0.082 HD
ATOM     26  C   UNL     1     117.755  45.133  11.554  0.00  0.00    -0.064 C 
ATOM     27  C   UNL     1     117.742  46.526  10.864  0.00  0.00    +0.066 C 
ENDBRANCH  19  20
ENDBRANCH  18  19
ENDBRANCH  14  15
ENDBRANCH  12  13
TORSDOF 6
ENDMDL
MODEL 4
REMARK VINA RESULT:      -8.4      2.475      3.821
REMARK  Name = C:\Users\Docking\Desktop\test protocol\1iep_ligandH.pdb
REMARK  8 active torsions:
REMARK  status: ('A' for Active; 'I' for Inactive)
REMARK    1  A    between atoms: _5  and  _11
REMARK    2  A    between atoms: _19  and  _21
REMARK    3  A    between atoms: _22  and  _66
REMARK    4  A    between atoms: _27  and  _30
REMARK    5  A    between atoms: _32  and  _33
REMARK    6  A    between atoms: _38  and  _43
REMARK    7  A    between atoms: _43  and  _46
REMARK    8  A    between atoms: _53  and  _55
REMARK                            x       y       z     vdW  Elec       q    Type
REMARK                         _______ _______ _______ _____ _____    ______ ____
ROOT
ATOM     10  C   UNL     1     119.105  56.900  17.066  0.00  0.00    +0.038 A 
ATOM     11  C   UNL     1     119.699  58.001  16.398  0.00  0.00    +0.047 A 
ATOM     12  C   UNL     1     120.318  59.088  17.141  0.00  0.00    +0.035 A 
ATOM     32  C   UNL     1     120.315  59.020  18.565  0.00  0.00    +0.024 A 
ATOM     33  C   UNL     1     119.715  57.909  19.260  0.00  0.00    +0.007 A 
ATOM     34  C   UNL     1     119.102  56.835  18.532  0.00  0.00    -0.029 A 
ATOM     35  C   UNL     1     118.468  55.672  19.330  0.00  0.00    +0.045 C 
ENDROOT
BRANCH  10   9
ATOM      4  C   UNL     1     119.405  53.151  14.084  0.00  0.00    +0.077 A 
ATOM      5  C   UNL     1     120.836  53.241  14.020  0.00  0.00    +0.048 A 
ATOM      6  C   UNL     1     121.455  54.270  14.764  0.00  0.00    +0.116 A 
ATOM      7  N   UNL     1     120.691  55.139  15.512  0.00  0.00    -0.223 NA
ATOM      8  C   UNL     1     119.313  55.026  15.550  0.00  0.00    +0.220 A 
ATOM      9  N   UNL     1     118.526  55.884  16.303  0.00  0.00    -0.283 N 
ATOM     36  H   UNL     1     117.512  55.772  16.299  0.00  0.00    +0.155 HD
ATOM     37  N   UNL     1     118.698  54.052  14.848  0.00  0.00    -0.214 NA
BRANCH   4   3
ATOM      1  C   UNL     1     116.424  51.079  12.629  0.00  0.00    +0.020 A 
ATOM      2  C   UNL     1     117.148  52.101  13.348  0.00  0.00    +0.013 A 
ATOM      3  C   UNL     1     118.606  52.115  13.356  0.00  0.00    +0.019 A 
ATOM     38  C   UNL     1     119.305  51.073  12.621  0.00  0.00    +0.120 A 
ATOM     39  N   UNL     1     118.581  50.100  11.939  0.00  0.00    -0.263 NA
ATOM     40  C   UNL     1     117.178  50.075  11.925  0.00  0.00    +0.111 A 
ENDBRANCH   4   3
ENDBRANCH  10   9
BRANCH  12  13
ATOM     13  N   UNL     1     120.929  60.235  16.517  0.00  0.00    -0.281 N 
ATOM     14  C   UNL     1     122.034  60.263  15.682  0.00  0.00    +0.248 C 
ATOM     30  O   UNL     1     122.798  59.324  15.515  0.00  0.00    -0.270 OA
ATOM     31  H   UNL     1     120.494  61.137  16.715  0.00  0.00    +0.155 HD
BRANCH  14  15
ATOM     15  C   UNL     1     122.344  61.520  14.936  0.00  0.00    +0.037 A 
ATOM     16  C   UNL     1     121.293  62.275  14.249  0.00  0.00    +0.013 A 
ATOM     17  C   UNL     1     121.622  63.476  13.523  0.00  0.00    +0.005 A 
ATOM     18  C   UNL     1     123.010  63.930  13.480  0.00  0.00    -0.033 A 
ATOM     28  C   UNL     1     124.032  63.164  14.175  0.00  0.00    +0.005 A 
ATOM     29  C   UNL     1     123.713  61.987  14.887  0.00  0.00    +0.013 A 
BRANCH  18  19
ATOM     19  C   UNL     1     123.455  65.188  12.711  0.00  0.00    +0.119 C 
BRANCH  19  20
ATOM     20  N   UNL     1     124.840  65.688  12.962  0.00  0.00    -0.302 NA
ATOM     21  C   UNL     1     124.848  66.932  13.855  0.00  0.00    +0.066 C 
ATOM     22  C   UNL     1     126.306  67.428  14.126  0.00  0.00    -0.064 C 
ATOM     23  N   UNL     1     127.000  67.714  12.793  0.00  0.00    +0.379 N 
ATOM     24  C   UNL     1     128.351  68.236  13.046  0.00  0.00    -0.096 C 
ATOM     25  H   UNL     1     126.420  68.512  12.274  0.00  0.00    -0.082 HD
ATOM     26  C   UNL     1     126.994  66.483  11.898  0.00  0.00    -0.064 C 
ATOM     27  C   UNL     1     125.543  65.980  11.659  0.00  0.00    +0.066 C 
ENDBRANCH  19  20
ENDBRANCH  18  19
ENDBRANCH  14  15
ENDBRANCH  12  13
TORSDOF 6
ENDMDL
MODEL 5
REMARK VINA RESULT:      -8.4      2.345      3.283
REMARK  Name = C:\Users\Docking\Desktop\test protocol\1iep_ligandH.pdb
REMARK  8 active torsions:
REMARK  status: ('A' for Active; 'I' for Inactive)
REMARK    1  A    between atoms: _5  and  _11
REMARK    2  A    between atoms: _19  and  _21
REMARK    3  A    between atoms: _22  and  _66
REMARK    4  A    between atoms: _27  and  _30
REMARK    5  A    between atoms: _32  and  _33
REMARK    6  A    between atoms: _38  and  _43
REMARK    7  A    between atoms: _43  and  _46
REMARK    8  A    between atoms: _53  and  _55
REMARK                            x       y       z     vdW  Elec       q    Type
REMARK                         _______ _______ _______ _____ _____    ______ ____
ROOT
ATOM     10  C   UNL     1     118.618  56.027  16.910  0.00  0.00    +0.038 A 
ATOM     11  C   UNL     1     119.325  57.090  16.293  0.00  0.00    +0.047 A 
ATOM     12  C   UNL     1     119.879  58.181  17.080  0.00  0.00    +0.035 A 
ATOM     32  C   UNL     1     119.696  58.155  18.494  0.00  0.00    +0.024 A 
ATOM     33  C   UNL     1     118.978  57.082  19.136  0.00  0.00    +0.007 A 
ATOM     34  C   UNL     1     118.428  56.005  18.365  0.00  0.00    -0.029 A 
ATOM     35  C   UNL     1     117.663  54.884  19.107  0.00  0.00    +0.045 C 
ENDROOT
BRANCH  10   9
ATOM      4  C   UNL     1     119.175  52.346  13.880  0.00  0.00    +0.077 A 
ATOM      5  C   UNL     1     120.603  52.488  13.877  0.00  0.00    +0.048 A 
ATOM      6  C   UNL     1     121.153  53.525  14.663  0.00  0.00    +0.116 A 
ATOM      7  N   UNL     1     120.328  54.352  15.393  0.00  0.00    -0.223 NA
ATOM      8  C   UNL     1     118.955  54.189  15.373  0.00  0.00    +0.220 A 
ATOM      9  N   UNL     1     118.107  55.005  16.106  0.00  0.00    -0.283 N 
ATOM     36  H   UNL     1     117.099  54.857  16.058  0.00  0.00    +0.155 HD
ATOM     37  N   UNL     1     118.405  53.207  14.629  0.00  0.00    -0.214 NA
BRANCH   4   3
ATOM      1  C   UNL     1     116.344  50.284  12.137  0.00  0.00    +0.020 A 
ATOM      2  C   UNL     1     117.001  51.323  12.897  0.00  0.00    +0.013 A 
ATOM      3  C   UNL     1     118.444  51.296  13.102  0.00  0.00    +0.019 A 
ATOM     38  C   UNL     1     119.199  50.196  12.521  0.00  0.00    +0.120 A 
ATOM     39  N   UNL     1     118.538  49.209  11.795  0.00  0.00    -0.263 NA
ATOM     40  C   UNL     1     117.150  49.224  11.593  0.00  0.00    +0.111 A 
ENDBRANCH   4   3
ENDBRANCH  10   9
BRANCH  12  13
ATOM     13  N   UNL     1     120.599  59.292  16.509  0.00  0.00    -0.281 N 
ATOM     14  C   UNL     1     121.935  59.345  16.147  0.00  0.00    +0.248 C 
ATOM     30  O   UNL     1     122.769  58.508  16.459  0.00  0.00    -0.270 OA
ATOM     31  H   UNL     1     120.058  60.143  16.353  0.00  0.00    +0.155 HD
BRANCH  14  15
ATOM     15  C   UNL     1     122.417  60.502  15.333  0.00  0.00    +0.037 A 
ATOM     16  C   UNL     1     123.756  60.507  14.738  0.00  0.00    +0.013 A 
ATOM     17  C   UNL     1     124.203  61.644  13.972  0.00  0.00    +0.005 A 
ATOM     18  C   UNL     1     123.307  62.784  13.794  0.00  0.00    -0.033 A 
ATOM     28  C   UNL     1     121.982  62.750  14.391  0.00  0.00    +0.005 A 
ATOM     29  C   UNL     1     121.541  61.639  15.144  0.00  0.00    +0.013 A 
BRANCH  18  19
ATOM     19  C   UNL     1     123.708  64.048  13.010  0.00  0.00    +0.119 C 
BRANCH  19  20
ATOM     20  N   UNL     1     123.680  65.347  13.746  0.00  0.00    -0.302 NA
ATOM     21  C   UNL     1     124.188  66.506  12.884  0.00  0.00    +0.066 C 
ATOM     22  C   UNL     1     124.131  67.861  13.662  0.00  0.00    -0.064 C 
ATOM     23  N   UNL     1     124.952  67.743  14.947  0.00  0.00    +0.379 N 
ATOM     24  C   UNL     1     124.948  69.033  15.652  0.00  0.00    -0.096 C 
ATOM     25  H   UNL     1     126.004  67.518  14.657  0.00  0.00    -0.082 HD
ATOM     26  C   UNL     1     124.455  66.590  15.809  0.00  0.00    -0.064 C 
ATOM     27  C   UNL     1     124.488  65.254  15.017  0.00  0.00    +0.066 C 
ENDBRANCH  19  20
ENDBRANCH  18  19
ENDBRANCH  14  15
ENDBRANCH  12  13
TORSDOF 6
ENDMDL
