MODEL 1
REMARK VINA RESULT:      -8.4      0.000      0.000
REMARK  Name = C:\Users\Docking\Desktop\test protocol\1iep_ligandH.pdb
REMARK  8 active torsions:
REMARK  status: ('A' for Active; 'I' for Inactive)
REMARK    1  A    between atoms: _5  and  _11
REMARK    2  A    between atoms: _19  and  _21
REMARK    3  A    between atoms: _22  and  _66
REMARK    4  A    between atoms: _27  and  _30
REMARK    5  A    between atoms: _32  and  _33
REMARK    6  A    between atoms: _38  and  _43
REMARK    7  A    between atoms: _43  and  _46
REMARK    8  A    between atoms: _53  and  _55
REMARK                            x       y       z     vdW  Elec       q    Type
REMARK                         _______ _______ _______ _____ _____    ______ ____
ROOT
ATOM     10  C   UNL     1     118.015  55.396  18.639  0.00  0.00    +0.038 A 
ATOM     11  C   UNL     1     117.948  54.372  17.661  0.00  0.00    +0.047 A 
ATOM     12  C   UNL     1     118.253  54.643  16.265  0.00  0.00    +0.035 A 
ATOM     32  C   UNL     1     118.626  55.970  15.901  0.00  0.00    +0.024 A 
ATOM     33  C   UNL     1     118.698  57.024  16.882  0.00  0.00    +0.007 A 
ATOM     34  C   UNL     1     118.396  56.762  18.260  0.00  0.00    -0.029 A 
ATOM     35  C   UNL     1     118.483  57.932  19.268  0.00  0.00    +0.045 C 
ENDROOT
BRANCH  10   9
ATOM      4  C   UNL     1     119.276  53.972  23.046  0.00  0.00    +0.077 A 
ATOM      5  C   UNL     1     120.651  53.820  22.667  0.00  0.00    +0.048 A 
ATOM      6  C   UNL     1     120.991  54.111  21.327  0.00  0.00    +0.116 A 
ATOM      7  N   UNL     1     120.020  54.524  20.441  0.00  0.00    -0.223 NA
ATOM      8  C   UNL     1     118.703  54.659  20.838  0.00  0.00    +0.220 A 
ATOM      9  N   UNL     1     117.711  55.080  19.965  0.00  0.00    -0.283 N 
ATOM     36  H   UNL     1     116.750  55.159  20.295  0.00  0.00    +0.155 HD
ATOM     37  N   UNL     1     118.352  54.385  22.112  0.00  0.00    -0.214 NA
BRANCH   4   3
ATOM      1  C   UNL     1     117.054  53.967  26.265  0.00  0.00    +0.020 A 
ATOM      2  C   UNL     1     117.507  54.256  24.924  0.00  0.00    +0.013 A 
ATOM      3  C   UNL     1     118.761  53.705  24.426  0.00  0.00    +0.019 A 
ATOM     38  C   UNL     1     119.539  52.858  25.318  0.00  0.00    +0.120 A 
ATOM     39  N   UNL     1     119.079  52.599  26.605  0.00  0.00    -0.263 NA
ATOM     40  C   UNL     1     117.875  53.125  27.095  0.00  0.00    +0.111 A 
ENDBRANCH   4   3
ENDBRANCH  10   9
BRANCH  12  13
ATOM     13  N   UNL     1     118.194  53.645  15.226  0.00  0.00    -0.281 N 
ATOM     14  C   UNL     1     119.216  52.827  14.772  0.00  0.00    +0.248 C 
ATOM     30  O   UNL     1     120.397  52.980  15.047  0.00  0.00    -0.270 OA
ATOM     31  H   UNL     1     117.289  53.528  14.770  0.00  0.00    +0.155 HD
BRANCH  14  15
ATOM     15  C   UNL     1     118.879  51.683  13.871  0.00  0.00    +0.037 A 
ATOM     16  C   UNL     1     117.550  51.558  13.267  0.00  0.00    +0.013 A 
ATOM     17  C   UNL     1     117.246  50.435  12.415  0.00  0.00    +0.005 A 
ATOM     18  C   UNL     1     118.274  49.429  12.162  0.00  0.00    -0.033 A 
ATOM     28  C   UNL     1     119.585  49.581  12.771  0.00  0.00    +0.005 A 
ATOM     29  C   UNL     1     119.887  50.679  13.606  0.00  0.00    +0.013 A 
BRANCH  18  19
ATOM     19  C   UNL     1     118.031  48.187  11.284  0.00  0.00    +0.119 C 
BRANCH  19  20
ATOM     20  N   UNL     1     118.668  46.908  11.717  0.00  0.00    -0.302 NA
ATOM     21  C   UNL     1     118.427  45.777  10.713  0.00  0.00    +0.066 C 
ATOM     22  C   UNL     1     119.119  44.452  11.171  0.00  0.00    -0.064 C 
ATOM     23  N   UNL     1     118.604  44.064  12.558  0.00  0.00    +0.379 N 
ATOM     24  C   UNL     1     119.209  42.788  12.966  0.00  0.00    -0.096 C 
ATOM     25  H   UNL     1     117.503  43.906  12.478  0.00  0.00    -0.082 HD
ATOM     26  C   UNL     1     118.837  45.184  13.562  0.00  0.00    -0.064 C 
ATOM     27  C   UNL     1     118.170  46.504  13.083  0.00  0.00    +0.066 C 
ENDBRANCH  19  20
ENDBRANCH  18  19
ENDBRANCH  14  15
ENDBRANCH  12  13
TORSDOF 6
ENDMDL
MODEL 2
REMARK VINA RESULT:      -8.1      5.351     12.039
REMARK  Name = C:\Users\Docking\Desktop\test protocol\1iep_ligandH.pdb
REMARK  8 active torsions:
REMARK  status: ('A' for Active; 'I' for Inactive)
REMARK    1  A    between atoms: _5  and  _11
REMARK    2  A    between atoms: _19  and  _21
REMARK    3  A    between atoms: _22  and  _66
REMARK    4  A    between atoms: _27  and  _30
REMARK    5  A    between atoms: _32  and  _33
REMARK    6  A    between atoms: _38  and  _43
REMARK    7  A    between atoms: _43  and  _46
REMARK    8  A    between atoms: _53  and  _55
REMARK                            x       y       z     vdW  Elec       q    Type
REMARK                         _______ _______ _______ _____ _____    ______ ____
ROOT
ATOM     10  C   UNL     1     119.918  53.295  18.062  0.00  0.00    +0.038 A 
ATOM     11  C   UNL     1     120.335  54.561  17.577  0.00  0.00    +0.047 A 
ATOM     12  C   UNL     1     120.382  55.724  18.449  0.00  0.00    +0.035 A 
ATOM     32  C   UNL     1     119.998  55.561  19.812  0.00  0.00    +0.024 A 
ATOM     33  C   UNL     1     119.570  54.282  20.322  0.00  0.00    +0.007 A 
ATOM     34  C   UNL     1     119.520  53.132  19.466  0.00  0.00    -0.029 A 
ATOM     35  C   UNL     1     119.046  51.787  20.065  0.00  0.00    +0.045 C 
ENDROOT
BRANCH  10   9
ATOM      4  C   UNL     1     118.637  51.241  13.918  0.00  0.00    +0.077 A 
ATOM      5  C   UNL     1     117.936  52.415  13.484  0.00  0.00    +0.048 A 
ATOM      6  C   UNL     1     117.923  53.523  14.360  0.00  0.00    +0.116 A 
ATOM      7  N   UNL     1     118.566  53.452  15.577  0.00  0.00    -0.223 NA
ATOM      8  C   UNL     1     119.232  52.304  15.965  0.00  0.00    +0.220 A 
ATOM      9  N   UNL     1     119.892  52.212  17.180  0.00  0.00    -0.283 N 
ATOM     36  H   UNL     1     120.365  51.345  17.433  0.00  0.00    +0.155 HD
ATOM     37  N   UNL     1     119.258  51.231  15.147  0.00  0.00    -0.214 NA
BRANCH   4   3
ATOM      1  C   UNL     1     117.922  48.406  11.318  0.00  0.00    +0.020 A 
ATOM      2  C   UNL     1     117.773  49.626  12.078  0.00  0.00    +0.013 A 
ATOM      3  C   UNL     1     118.743  49.989  13.103  0.00  0.00    +0.019 A 
ATOM     38  C   UNL     1     119.863  49.089  13.335  0.00  0.00    +0.120 A 
ATOM     39  N   UNL     1     119.980  47.921  12.589  0.00  0.00    -0.263 NA
ATOM     40  C   UNL     1     119.051  47.560  11.602  0.00  0.00    +0.111 A 
ENDBRANCH   4   3
ENDBRANCH  10   9
BRANCH  12  13
ATOM     13  N   UNL     1     120.790  57.035  18.011  0.00  0.00    -0.281 N 
ATOM     14  C   UNL     1     121.910  57.376  17.271  0.00  0.00    +0.248 C 
ATOM     30  O   UNL     1     122.850  56.625  17.054  0.00  0.00    -0.270 OA
ATOM     31  H   UNL     1     120.178  57.806  18.278  0.00  0.00    +0.155 HD
BRANCH  14  15
ATOM     15  C   UNL     1     122.008  58.754  16.701  0.00  0.00    +0.037 A 
ATOM     16  C   UNL     1     120.974  59.759  16.961  0.00  0.00    +0.013 A 
ATOM     17  C   UNL     1     121.084  61.075  16.385  0.00  0.00    +0.005 A 
ATOM     18  C   UNL     1     122.234  61.395  15.543  0.00  0.00    -0.033 A 
ATOM     28  C   UNL     1     123.248  60.381  15.306  0.00  0.00    +0.005 A 
ATOM     29  C   UNL     1     123.143  59.089  15.868  0.00  0.00    +0.013 A 
BRANCH  18  19
ATOM     19  C   UNL     1     122.423  62.768  14.871  0.00  0.00    +0.119 C 
BRANCH  19  20
ATOM     20  N   UNL     1     123.108  62.791  13.544  0.00  0.00    -0.302 NA
ATOM     21  C   UNL     1     124.198  63.864  13.479  0.00  0.00    +0.066 C 
ATOM     22  C   UNL     1     124.920  63.859  12.092  0.00  0.00    -0.064 C 
ATOM     23  N   UNL     1     123.888  64.067  10.982  0.00  0.00    +0.379 N 
ATOM     24  C   UNL     1     124.571  64.121   9.681  0.00  0.00    -0.096 C 
ATOM     25  H   UNL     1     123.405  65.057  11.152  0.00  0.00    -0.082 HD
ATOM     26  C   UNL     1     122.799  63.005  11.041  0.00  0.00    -0.064 C 
ATOM     27  C   UNL     1     122.108  62.999  12.434  0.00  0.00    +0.066 C 
ENDBRANCH  19  20
ENDBRANCH  18  19
ENDBRANCH  14  15
ENDBRANCH  12  13
TORSDOF 6
ENDMDL
MODEL 3
REMARK VINA RESULT:      -8.1      5.373      8.677
REMARK  Name = C:\Users\Docking\Desktop\test protocol\1iep_ligandH.pdb
REMARK  8 active torsions:
REMARK  status: ('A' for Active; 'I' for Inactive)
REMARK    1  A    between atoms: _5  and  _11
REMARK    2  A    between atoms: _19  and  _21
REMARK    3  A    between atoms: _22  and  _66
REMARK    4  A    between atoms: _27  and  _30
REMARK    5  A    between atoms: _32  and  _33
REMARK    6  A    between atoms: _38  and  _43
REMARK    7  A    between atoms: _43  and  _46
REMARK    8  A    between atoms: _53  and  _55
REMARK                            x       y       z     vdW  Elec       q    Type
REMARK                         _______ _______ _______ _____ _____    ______ ____
ROOT
ATOM     10  C   UNL     1     120.245  59.290  17.264  0.00  0.00    +0.038 A 
ATOM     11  C   UNL     1     120.102  58.016  16.658  0.00  0.00    +0.047 A 
ATOM     12  C   UNL     1     119.741  56.845  17.443  0.00  0.00    +0.035 A 
ATOM     32  C   UNL     1     119.532  57.009  18.843  0.00  0.00    +0.024 A 
ATOM     33  C   UNL     1     119.674  58.297  19.476  0.00  0.00    +0.007 A 
ATOM     34  C   UNL     1     120.032  59.455  18.707  0.00  0.00    -0.029 A 
ATOM     35  C   UNL     1     120.177  60.809  19.439  0.00  0.00    +0.045 C 
ENDROOT
BRANCH  10   9
ATOM      4  C   UNL     1     123.436  61.853  14.757  0.00  0.00    +0.077 A 
ATOM      5  C   UNL     1     124.507  60.961  15.094  0.00  0.00    +0.048 A 
ATOM      6  C   UNL     1     124.196  59.858  15.921  0.00  0.00    +0.116 A 
ATOM      7  N   UNL     1     122.907  59.671  16.371  0.00  0.00    -0.223 NA
ATOM      8  C   UNL     1     121.898  60.552  16.028  0.00  0.00    +0.220 A 
ATOM      9  N   UNL     1     120.593  60.380  16.463  0.00  0.00    -0.283 N 
ATOM     36  H   UNL     1     119.878  61.056  16.194  0.00  0.00    +0.155 HD
ATOM     37  N   UNL     1     122.169  61.614  15.241  0.00  0.00    -0.214 NA
BRANCH   4   3
ATOM      1  C   UNL     1     124.174  65.493  13.529  0.00  0.00    +0.020 A 
ATOM      2  C   UNL     1     124.025  64.357  14.409  0.00  0.00    +0.013 A 
ATOM      3  C   UNL     1     123.605  63.062  13.890  0.00  0.00    +0.019 A 
ATOM     38  C   UNL     1     123.343  62.949  12.463  0.00  0.00    +0.120 A 
ATOM     39  N   UNL     1     123.493  64.060  11.640  0.00  0.00    -0.263 NA
ATOM     40  C   UNL     1     123.895  65.312  12.129  0.00  0.00    +0.111 A 
ENDBRANCH   4   3
ENDBRANCH  10   9
BRANCH  12  13
ATOM     13  N   UNL     1     119.589  55.525  16.884  0.00  0.00    -0.281 N 
ATOM     14  C   UNL     1     118.448  54.955  16.344  0.00  0.00    +0.248 C 
ATOM     30  O   UNL     1     117.324  55.421  16.455  0.00  0.00    -0.270 OA
ATOM     31  H   UNL     1     120.425  54.939  16.886  0.00  0.00    +0.155 HD
BRANCH  14  15
ATOM     15  C   UNL     1     118.571  53.674  15.583  0.00  0.00    +0.037 A 
ATOM     16  C   UNL     1     119.316  52.536  16.127  0.00  0.00    +0.013 A 
ATOM     17  C   UNL     1     119.434  51.318  15.365  0.00  0.00    +0.005 A 
ATOM     18  C   UNL     1     118.802  51.232  14.050  0.00  0.00    -0.033 A 
ATOM     28  C   UNL     1     118.064  52.375  13.537  0.00  0.00    +0.005 A 
ATOM     29  C   UNL     1     117.948  53.571  14.281  0.00  0.00    +0.013 A 
BRANCH  18  19
ATOM     19  C   UNL     1     118.894  49.980  13.158  0.00  0.00    +0.119 C 
BRANCH  19  20
ATOM     20  N   UNL     1     119.454  48.741  13.775  0.00  0.00    -0.302 NA
ATOM     21  C   UNL     1     120.956  48.596  13.512  0.00  0.00    +0.066 C 
ATOM     22  C   UNL     1     121.530  47.307  14.184  0.00  0.00    -0.064 C 
ATOM     23  N   UNL     1     120.770  46.084  13.667  0.00  0.00    +0.379 N 
ATOM     24  C   UNL     1     121.345  44.865  14.253  0.00  0.00    -0.096 C 
ATOM     25  H   UNL     1     120.921  46.034  12.564  0.00  0.00    -0.082 HD
ATOM     26  C   UNL     1     119.275  46.221  13.922  0.00  0.00    -0.064 C 
ATOM     27  C   UNL     1     118.721  47.521  13.275  0.00  0.00    +0.066 C 
ENDBRANCH  19  20
ENDBRANCH  18  19
ENDBRANCH  14  15
ENDBRANCH  12  13
TORSDOF 6
ENDMDL
MODEL 4
REMARK VINA RESULT:      -7.9      7.222     13.749
REMARK  Name = C:\Users\Docking\Desktop\test protocol\1iep_ligandH.pdb
REMARK  8 active torsions:
REMARK  status: ('A' for Active; 'I' for Inactive)
REMARK    1  A    between atoms: _5  and  _11
REMARK    2  A    between atoms: _19  and  _21
REMARK    3  A    between atoms: _22  and  _66
REMARK    4  A    between atoms: _27  and  _30
REMARK    5  A    between atoms: _32  and  _33
REMARK    6  A    between atoms: _38  and  _43
REMARK    7  A    between atoms: _43  and  _46
REMARK    8  A    between atoms: _53  and  _55
REMARK                            x       y       z     vdW  Elec       q    Type
REMARK                         _______ _______ _______ _____ _____    ______ ____
ROOT
ATOM     10  C   UNL     1     119.007  56.843  17.561  0.00  0.00    +0.038 A 
ATOM     11  C   UNL     1     119.607  57.994  16.989  0.00  0.00    +0.047 A 
ATOM     12  C   UNL     1     120.141  59.058  17.825  0.00  0.00    +0.035 A 
ATOM     32  C   UNL     1     120.051  58.915  19.240  0.00  0.00    +0.024 A 
ATOM     33  C   UNL     1     119.444  57.752  19.838  0.00  0.00    +0.007 A 
ATOM     34  C   UNL     1     118.912  56.701  19.019  0.00  0.00    -0.029 A 
ATOM     35  C   UNL     1     118.266  55.480  19.714  0.00  0.00    +0.045 C 
ENDROOT
BRANCH  10   9
ATOM      4  C   UNL     1     119.589  53.008  14.734  0.00  0.00    +0.077 A 
ATOM      5  C   UNL     1     121.008  52.993  14.947  0.00  0.00    +0.048 A 
ATOM      6  C   UNL     1     121.549  53.994  15.785  0.00  0.00    +0.116 A 
ATOM      7  N   UNL     1     120.723  54.934  16.362  0.00  0.00    -0.223 NA
ATOM      8  C   UNL     1     119.360  54.921  16.135  0.00  0.00    +0.220 A 
ATOM      9  N   UNL     1     118.510  55.853  16.711  0.00  0.00    -0.283 N 
ATOM     36  H   UNL     1     117.510  55.814  16.513  0.00  0.00    +0.155 HD
ATOM     37  N   UNL     1     118.819  53.977  15.337  0.00  0.00    -0.214 NA
BRANCH   4   3
ATOM      1  C   UNL     1     116.777  51.056  12.842  0.00  0.00    +0.020 A 
ATOM      2  C   UNL     1     117.424  52.039  13.680  0.00  0.00    +0.013 A 
ATOM      3  C   UNL     1     118.868  52.015  13.877  0.00  0.00    +0.019 A 
ATOM     38  C   UNL     1     119.635  50.976  13.206  0.00  0.00    +0.120 A 
ATOM     39  N   UNL     1     118.984  50.042  12.406  0.00  0.00    -0.263 NA
ATOM     40  C   UNL     1     117.595  50.054  12.210  0.00  0.00    +0.111 A 
ENDBRANCH   4   3
ENDBRANCH  10   9
BRANCH  12  13
ATOM     13  N   UNL     1     120.754  60.253  17.301  0.00  0.00    -0.281 N 
ATOM     14  C   UNL     1     122.079  60.445  16.944  0.00  0.00    +0.248 C 
ATOM     30  O   UNL     1     122.988  59.678  17.223  0.00  0.00    -0.270 OA
ATOM     31  H   UNL     1     120.136  61.056  17.179  0.00  0.00    +0.155 HD
BRANCH  14  15
ATOM     15  C   UNL     1     122.450  61.674  16.179  0.00  0.00    +0.037 A 
ATOM     16  C   UNL     1     122.522  61.666  14.716  0.00  0.00    +0.013 A 
ATOM     17  C   UNL     1     122.899  62.860  14.003  0.00  0.00    +0.005 A 
ATOM     18  C   UNL     1     123.206  64.076  14.754  0.00  0.00    -0.033 A 
ATOM     28  C   UNL     1     123.121  64.058  16.205  0.00  0.00    +0.005 A 
ATOM     29  C   UNL     1     122.753  62.888  16.907  0.00  0.00    +0.013 A 
BRANCH  18  19
ATOM     19  C   UNL     1     123.637  65.390  14.078  0.00  0.00    +0.119 C 
BRANCH  19  20
ATOM     20  N   UNL     1     124.723  66.174  14.737  0.00  0.00    -0.302 NA
ATOM     21  C   UNL     1     124.239  67.552  15.198  0.00  0.00    +0.066 C 
ATOM     22  C   UNL     1     125.383  68.350  15.906  0.00  0.00    -0.064 C 
ATOM     23  N   UNL     1     126.572  68.484  14.953  0.00  0.00    +0.379 N 
ATOM     24  C   UNL     1     127.626  69.283  15.595  0.00  0.00    -0.096 C 
ATOM     25  H   UNL     1     126.224  69.043  14.054  0.00  0.00    -0.082 HD
ATOM     26  C   UNL     1     127.058  67.118  14.488  0.00  0.00    -0.064 C 
ATOM     27  C   UNL     1     125.907  66.323  13.813  0.00  0.00    +0.066 C 
ENDBRANCH  19  20
ENDBRANCH  18  19
ENDBRANCH  14  15
ENDBRANCH  12  13
TORSDOF 6
ENDMDL
MODEL 5
REMARK VINA RESULT:      -7.9      4.186      7.079
REMARK  Name = C:\Users\Docking\Desktop\test protocol\1iep_ligandH.pdb
REMARK  8 active torsions:
REMARK  status: ('A' for Active; 'I' for Inactive)
REMARK    1  A    between atoms: _5  and  _11
REMARK    2  A    between atoms: _19  and  _21
REMARK    3  A    between atoms: _22  and  _66
REMARK    4  A    between atoms: _27  and  _30
REMARK    5  A    between atoms: _32  and  _33
REMARK    6  A    between atoms: _38  and  _43
REMARK    7  A    between atoms: _43  and  _46
REMARK    8  A    between atoms: _53  and  _55
REMARK                            x       y       z     vdW  Elec       q    Type
REMARK                         _______ _______ _______ _____ _____    ______ ____
ROOT
ATOM     10  C   UNL     1     119.445  57.308  17.709  0.00  0.00    +0.038 A 
ATOM     11  C   UNL     1     119.110  56.388  16.682  0.00  0.00    +0.047 A 
ATOM     12  C   UNL     1     118.806  54.999  16.987  0.00  0.00    +0.035 A 
ATOM     32  C   UNL     1     118.851  54.580  18.349  0.00  0.00    +0.024 A 
ATOM     33  C   UNL     1     119.191  55.502  19.404  0.00  0.00    +0.007 A 
ATOM     34  C   UNL     1     119.494  56.873  19.110  0.00  0.00    -0.029 A 
ATOM     35  C   UNL     1     119.858  57.815  20.281  0.00  0.00    +0.045 C 
ENDROOT
BRANCH  10   9
ATOM      4  C   UNL     1     122.453  60.748  16.242  0.00  0.00    +0.077 A 
ATOM      5  C   UNL     1     123.562  59.840  16.192  0.00  0.00    +0.048 A 
ATOM      6  C   UNL     1     123.318  58.497  16.559  0.00  0.00    +0.116 A 
ATOM      7  N   UNL     1     122.055  58.104  16.945  0.00  0.00    -0.223 NA
ATOM      8  C   UNL     1     121.008  59.006  16.983  0.00  0.00    +0.220 A 
ATOM      9  N   UNL     1     119.727  58.631  17.359  0.00  0.00    -0.283 N 
ATOM     36  H   UNL     1     118.984  59.328  17.382  0.00  0.00    +0.155 HD
ATOM     37  N   UNL     1     121.216  60.294  16.639  0.00  0.00    -0.214 NA
BRANCH   4   3
ATOM      1  C   UNL     1     122.815  64.636  16.471  0.00  0.00    +0.020 A 
ATOM      2  C   UNL     1     122.725  63.251  16.873  0.00  0.00    +0.013 A 
ATOM      3  C   UNL     1     122.552  62.198  15.881  0.00  0.00    +0.019 A 
ATOM     38  C   UNL     1     122.473  62.582  14.479  0.00  0.00    +0.120 A 
ATOM     39  N   UNL     1     122.562  63.924  14.123  0.00  0.00    -0.263 NA
ATOM     40  C   UNL     1     122.727  64.947  15.069  0.00  0.00    +0.111 A 
ENDBRANCH   4   3
ENDBRANCH  10   9
BRANCH  12  13
ATOM     13  N   UNL     1     118.467  54.018  15.986  0.00  0.00    -0.281 N 
ATOM     14  C   UNL     1     119.206  53.643  14.876  0.00  0.00    +0.248 C 
ATOM     30  O   UNL     1     120.180  54.251  14.457  0.00  0.00    -0.270 OA
ATOM     31  H   UNL     1     117.573  53.542  16.111  0.00  0.00    +0.155 HD
BRANCH  14  15
ATOM     15  C   UNL     1     118.797  52.425  14.113  0.00  0.00    +0.037 A 
ATOM     16  C   UNL     1     117.452  52.301  13.545  0.00  0.00    +0.013 A 
ATOM     17  C   UNL     1     117.077  51.108  12.828  0.00  0.00    +0.005 A 
ATOM     18  C   UNL     1     118.050  50.028  12.675  0.00  0.00    -0.033 A 
ATOM     28  C   UNL     1     119.379  50.180  13.245  0.00  0.00    +0.005 A 
ATOM     29  C   UNL     1     119.749  51.347  13.949  0.00  0.00    +0.013 A 
BRANCH  18  19
ATOM     19  C   UNL     1     117.730  48.711  11.944  0.00  0.00    +0.119 C 
BRANCH  19  20
ATOM     20  N   UNL     1     118.703  47.589  12.099  0.00  0.00    -0.302 NA
ATOM     21  C   UNL     1     118.922  46.833  10.785  0.00  0.00    +0.066 C 
ATOM     22  C   UNL     1     119.960  45.677  10.960  0.00  0.00    -0.064 C 
ATOM     23  N   UNL     1     119.481  44.727  12.059  0.00  0.00    +0.379 N 
ATOM     24  C   UNL     1     120.425  43.607  12.186  0.00  0.00    -0.096 C 
ATOM     25  H   UNL     1     118.499  44.307  11.738  0.00  0.00    -0.082 HD
ATOM     26  C   UNL     1     119.258  45.471  13.368  0.00  0.00    -0.064 C 
ATOM     27  C   UNL     1     118.248  46.636  13.176  0.00  0.00    +0.066 C 
ENDBRANCH  19  20
ENDBRANCH  18  19
ENDBRANCH  14  15
ENDBRANCH  12  13
TORSDOF 6
ENDMDL
