MODEL 1
REMARK VINA RESULT:      -8.5      0.000      0.000
REMARK  Name = C:\Users\Docking\Desktop\test protocol\1iep_ligandH.pdb
REMARK  8 active torsions:
REMARK  status: ('A' for Active; 'I' for Inactive)
REMARK    1  A    between atoms: _5  and  _11
REMARK    2  A    between atoms: _19  and  _21
REMARK    3  A    between atoms: _22  and  _66
REMARK    4  A    between atoms: _27  and  _30
REMARK    5  A    between atoms: _32  and  _33
REMARK    6  A    between atoms: _38  and  _43
REMARK    7  A    between atoms: _43  and  _46
REMARK    8  A    between atoms: _53  and  _55
REMARK                            x       y       z     vdW  Elec       q    Type
REMARK                         _______ _______ _______ _____ _____    ______ ____
ROOT
ATOM     10  C   UNL     1     118.255  55.422  18.534  0.00  0.00    +0.038 A 
ATOM     11  C   UNL     1     118.047  54.374  17.602  0.00  0.00    +0.047 A 
ATOM     12  C   UNL     1     118.285  54.572  16.181  0.00  0.00    +0.035 A 
ATOM     32  C   UNL     1     118.736  55.851  15.743  0.00  0.00    +0.024 A 
ATOM     33  C   UNL     1     118.951  56.929  16.676  0.00  0.00    +0.007 A 
ATOM     34  C   UNL     1     118.716  56.740  18.079  0.00  0.00    -0.029 A 
ATOM     35  C   UNL     1     118.958  57.932  19.034  0.00  0.00    +0.045 C 
ENDROOT
BRANCH  10   9
ATOM      4  C   UNL     1     119.410  53.444  22.752  0.00  0.00    +0.077 A 
ATOM      5  C   UNL     1     120.584  52.825  22.207  0.00  0.00    +0.048 A 
ATOM      6  C   UNL     1     120.851  53.035  20.835  0.00  0.00    +0.116 A 
ATOM      7  N   UNL     1     120.001  53.808  20.075  0.00  0.00    -0.223 NA
ATOM      8  C   UNL     1     118.876  54.389  20.631  0.00  0.00    +0.220 A 
ATOM      9  N   UNL     1     118.011  55.177  19.887  0.00  0.00    -0.283 N 
ATOM     36  H   UNL     1     117.188  55.581  20.333  0.00  0.00    +0.155 HD
ATOM     37  N   UNL     1     118.598  54.203  21.938  0.00  0.00    -0.214 NA
BRANCH   4   3
ATOM      1  C   UNL     1     117.544  53.934  26.154  0.00  0.00    +0.020 A 
ATOM      2  C   UNL     1     117.905  54.093  24.765  0.00  0.00    +0.013 A 
ATOM      3  C   UNL     1     118.995  53.318  24.184  0.00  0.00    +0.019 A 
ATOM     38  C   UNL     1     119.704  52.382  25.044  0.00  0.00    +0.120 A 
ATOM     39  N   UNL     1     119.334  52.251  26.379  0.00  0.00    -0.263 NA
ATOM     40  C   UNL     1     118.289  52.993  26.949  0.00  0.00    +0.111 A 
ENDBRANCH   4   3
ENDBRANCH  10   9
BRANCH  12  13
ATOM     13  N   UNL     1     118.083  53.547  15.187  0.00  0.00    -0.281 N 
ATOM     14  C   UNL     1     119.023  52.991  14.334  0.00  0.00    +0.248 C 
ATOM     30  O   UNL     1     120.143  53.445  14.149  0.00  0.00    -0.270 OA
ATOM     31  H   UNL     1     117.133  53.187  15.101  0.00  0.00    +0.155 HD
BRANCH  14  15
ATOM     15  C   UNL     1     118.663  51.761  13.566  0.00  0.00    +0.037 A 
ATOM     16  C   UNL     1     117.271  51.461  13.220  0.00  0.00    +0.013 A 
ATOM     17  C   UNL     1     116.949  50.259  12.493  0.00  0.00    +0.005 A 
ATOM     18  C   UNL     1     118.022  49.348  12.104  0.00  0.00    -0.033 A 
ATOM     28  C   UNL     1     119.395  49.672  12.455  0.00  0.00    +0.005 A 
ATOM     29  C   UNL     1     119.715  50.849  13.169  0.00  0.00    +0.013 A 
BRANCH  18  19
ATOM     19  C   UNL     1     117.769  48.032  11.345  0.00  0.00    +0.119 C 
BRANCH  19  20
ATOM     20  N   UNL     1     118.519  46.824  11.800  0.00  0.00    -0.302 NA
ATOM     21  C   UNL     1     118.264  45.615  10.896  0.00  0.00    +0.066 C 
ATOM     22  C   UNL     1     119.074  44.366  11.375  0.00  0.00    -0.064 C 
ATOM     23  N   UNL     1     118.705  44.046  12.824  0.00  0.00    +0.379 N 
ATOM     24  C   UNL     1     119.421  42.838  13.258  0.00  0.00    -0.096 C 
ATOM     25  H   UNL     1     117.613  43.821  12.853  0.00  0.00    -0.082 HD
ATOM     26  C   UNL     1     118.952  45.244  13.729  0.00  0.00    -0.064 C 
ATOM     27  C   UNL     1     118.166  46.488  13.228  0.00  0.00    +0.066 C 
ENDBRANCH  19  20
ENDBRANCH  18  19
ENDBRANCH  14  15
ENDBRANCH  12  13
TORSDOF 6
ENDMDL
MODEL 2
REMARK VINA RESULT:      -8.4      5.359     12.050
REMARK  Name = C:\Users\Docking\Desktop\test protocol\1iep_ligandH.pdb
REMARK  8 active torsions:
REMARK  status: ('A' for Active; 'I' for Inactive)
REMARK    1  A    between atoms: _5  and  _11
REMARK    2  A    between atoms: _19  and  _21
REMARK    3  A    between atoms: _22  and  _66
REMARK    4  A    between atoms: _27  and  _30
REMARK    5  A    between atoms: _32  and  _33
REMARK    6  A    between atoms: _38  and  _43
REMARK    7  A    between atoms: _43  and  _46
REMARK    8  A    between atoms: _53  and  _55
REMARK                            x       y       z     vdW  Elec       q    Type
REMARK                         _______ _______ _______ _____ _____    ______ ____
ROOT
ATOM     10  C   UNL     1     119.850  53.129  17.790  0.00  0.00    +0.038 A 
ATOM     11  C   UNL     1     120.287  54.373  17.268  0.00  0.00    +0.047 A 
ATOM     12  C   UNL     1     120.382  55.553  18.114  0.00  0.00    +0.035 A 
ATOM     32  C   UNL     1     120.028  55.428  19.489  0.00  0.00    +0.024 A 
ATOM     33  C   UNL     1     119.581  54.172  20.036  0.00  0.00    +0.007 A 
ATOM     34  C   UNL     1     119.483  53.005  19.206  0.00  0.00    -0.029 A 
ATOM     35  C   UNL     1     118.992  51.686  19.846  0.00  0.00    +0.045 C 
ENDROOT
BRANCH  10   9
ATOM      4  C   UNL     1     118.468  51.036  13.698  0.00  0.00    +0.077 A 
ATOM      5  C   UNL     1     117.813  52.228  13.241  0.00  0.00    +0.048 A 
ATOM      6  C   UNL     1     117.849  53.355  14.092  0.00  0.00    +0.116 A 
ATOM      7  N   UNL     1     118.495  53.285  15.307  0.00  0.00    -0.223 NA
ATOM      8  C   UNL     1     119.115  52.120  15.719  0.00  0.00    +0.220 A 
ATOM      9  N   UNL     1     119.777  52.029  16.933  0.00  0.00    -0.283 N 
ATOM     36  H   UNL     1     120.216  51.149  17.204  0.00  0.00    +0.155 HD
ATOM     37  N   UNL     1     119.094  51.029  14.925  0.00  0.00    -0.214 NA
BRANCH   4   3
ATOM      1  C   UNL     1     119.690  47.678  12.107  0.00  0.00    +0.020 A 
ATOM      2  C   UNL     1     119.691  48.896  12.884  0.00  0.00    +0.013 A 
ATOM      3  C   UNL     1     118.520  49.764  12.911  0.00  0.00    +0.019 A 
ATOM     38  C   UNL     1     117.355  49.367  12.135  0.00  0.00    +0.120 A 
ATOM     39  N   UNL     1     117.383  48.189  11.395  0.00  0.00    -0.263 NA
ATOM     40  C   UNL     1     118.505  47.346  11.361  0.00  0.00    +0.111 A 
ENDBRANCH   4   3
ENDBRANCH  10   9
BRANCH  12  13
ATOM     13  N   UNL     1     120.811  56.844  17.637  0.00  0.00    -0.281 N 
ATOM     14  C   UNL     1     122.087  57.234  17.265  0.00  0.00    +0.248 C 
ATOM     30  O   UNL     1     123.100  56.588  17.488  0.00  0.00    -0.270 OA
ATOM     31  H   UNL     1     120.086  57.558  17.566  0.00  0.00    +0.155 HD
BRANCH  14  15
ATOM     15  C   UNL     1     122.265  58.536  16.553  0.00  0.00    +0.037 A 
ATOM     16  C   UNL     1     123.348  58.732  15.586  0.00  0.00    +0.013 A 
ATOM     17  C   UNL     1     123.508  60.004  14.926  0.00  0.00    +0.005 A 
ATOM     18  C   UNL     1     122.580  61.090  15.232  0.00  0.00    -0.033 A 
ATOM     28  C   UNL     1     121.512  60.868  16.192  0.00  0.00    +0.005 A 
ATOM     29  C   UNL     1     121.353  59.623  16.841  0.00  0.00    +0.013 A 
BRANCH  18  19
ATOM     19  C   UNL     1     122.689  62.487  14.592  0.00  0.00    +0.119 C 
BRANCH  19  20
ATOM     20  N   UNL     1     123.294  62.569  13.229  0.00  0.00    -0.302 NA
ATOM     21  C   UNL     1     124.395  63.630  13.153  0.00  0.00    +0.066 C 
ATOM     22  C   UNL     1     125.033  63.688  11.727  0.00  0.00    -0.064 C 
ATOM     23  N   UNL     1     123.940  63.967  10.693  0.00  0.00    +0.379 N 
ATOM     24  C   UNL     1     124.545  64.079   9.358  0.00  0.00    -0.096 C 
ATOM     25  H   UNL     1     123.484  64.953  10.942  0.00  0.00    -0.082 HD
ATOM     26  C   UNL     1     122.840  62.918  10.764  0.00  0.00    -0.064 C 
ATOM     27  C   UNL     1     122.233  62.848  12.193  0.00  0.00    +0.066 C 
ENDBRANCH  19  20
ENDBRANCH  18  19
ENDBRANCH  14  15
ENDBRANCH  12  13
TORSDOF 6
ENDMDL
MODEL 3
REMARK VINA RESULT:      -8.4      5.274      8.522
REMARK  Name = C:\Users\Docking\Desktop\test protocol\1iep_ligandH.pdb
REMARK  8 active torsions:
REMARK  status: ('A' for Active; 'I' for Inactive)
REMARK    1  A    between atoms: _5  and  _11
REMARK    2  A    between atoms: _19  and  _21
REMARK    3  A    between atoms: _22  and  _66
REMARK    4  A    between atoms: _27  and  _30
REMARK    5  A    between atoms: _32  and  _33
REMARK    6  A    between atoms: _38  and  _43
REMARK    7  A    between atoms: _43  and  _46
REMARK    8  A    between atoms: _53  and  _55
REMARK                            x       y       z     vdW  Elec       q    Type
REMARK                         _______ _______ _______ _____ _____    ______ ____
ROOT
ATOM     10  C   UNL     1     120.199  59.030  17.245  0.00  0.00    +0.038 A 
ATOM     11  C   UNL     1     120.075  57.764  16.620  0.00  0.00    +0.047 A 
ATOM     12  C   UNL     1     119.688  56.585  17.378  0.00  0.00    +0.035 A 
ATOM     32  C   UNL     1     119.432  56.732  18.773  0.00  0.00    +0.024 A 
ATOM     33  C   UNL     1     119.555  58.012  19.425  0.00  0.00    +0.007 A 
ATOM     34  C   UNL     1     119.939  59.178  18.682  0.00  0.00    -0.029 A 
ATOM     35  C   UNL     1     120.062  60.524  19.435  0.00  0.00    +0.045 C 
ENDROOT
BRANCH  10   9
ATOM      4  C   UNL     1     123.503  61.726  15.041  0.00  0.00    +0.077 A 
ATOM      5  C   UNL     1     124.575  60.889  15.497  0.00  0.00    +0.048 A 
ATOM      6  C   UNL     1     124.235  59.780  16.302  0.00  0.00    +0.116 A 
ATOM      7  N   UNL     1     122.917  59.534  16.621  0.00  0.00    -0.223 NA
ATOM      8  C   UNL     1     121.907  60.362  16.167  0.00  0.00    +0.220 A 
ATOM      9  N   UNL     1     120.574  60.129  16.469  0.00  0.00    -0.283 N 
ATOM     36  H   UNL     1     119.859  60.767  16.120  0.00  0.00    +0.155 HD
ATOM     37  N   UNL     1     122.206  61.429  15.397  0.00  0.00    -0.214 NA
BRANCH   4   3
ATOM      1  C   UNL     1     124.533  65.282  13.778  0.00  0.00    +0.020 A 
ATOM      2  C   UNL     1     124.366  64.142  14.650  0.00  0.00    +0.013 A 
ATOM      3  C   UNL     1     123.702  62.934  14.179  0.00  0.00    +0.019 A 
ATOM     38  C   UNL     1     123.214  62.910  12.808  0.00  0.00    +0.120 A 
ATOM     39  N   UNL     1     123.388  64.023  11.991  0.00  0.00    -0.263 NA
ATOM     40  C   UNL     1     124.024  65.192  12.434  0.00  0.00    +0.111 A 
ENDBRANCH   4   3
ENDBRANCH  10   9
BRANCH  12  13
ATOM     13  N   UNL     1     119.553  55.271  16.799  0.00  0.00    -0.281 N 
ATOM     14  C   UNL     1     118.397  54.652  16.352  0.00  0.00    +0.248 C 
ATOM     30  O   UNL     1     117.265  55.053  16.581  0.00  0.00    -0.270 OA
ATOM     31  H   UNL     1     120.414  54.732  16.706  0.00  0.00    +0.155 HD
BRANCH  14  15
ATOM     15  C   UNL     1     118.514  53.398  15.547  0.00  0.00    +0.037 A 
ATOM     16  C   UNL     1     117.964  53.310  14.192  0.00  0.00    +0.013 A 
ATOM     17  C   UNL     1     118.076  52.083  13.444  0.00  0.00    +0.005 A 
ATOM     18  C   UNL     1     118.743  50.933  14.050  0.00  0.00    -0.033 A 
ATOM     28  C   UNL     1     119.285  51.050  15.394  0.00  0.00    +0.005 A 
ATOM     29  C   UNL     1     119.176  52.250  16.130  0.00  0.00    +0.013 A 
BRANCH  18  19
ATOM     19  C   UNL     1     118.889  49.578  13.333  0.00  0.00    +0.119 C 
BRANCH  19  20
ATOM     20  N   UNL     1     119.672  48.516  14.032  0.00  0.00    -0.302 NA
ATOM     21  C   UNL     1     121.142  48.508  13.602  0.00  0.00    +0.066 C 
ATOM     22  C   UNL     1     121.951  47.405  14.360  0.00  0.00    -0.064 C 
ATOM     23  N   UNL     1     121.306  46.041  14.110  0.00  0.00    +0.379 N 
ATOM     24  C   UNL     1     122.097  44.995  14.774  0.00  0.00    -0.096 C 
ATOM     25  H   UNL     1     121.340  45.847  13.013  0.00  0.00    -0.082 HD
ATOM     26  C   UNL     1     119.843  46.041  14.533  0.00  0.00    -0.064 C 
ATOM     27  C   UNL     1     119.055  47.159  13.796  0.00  0.00    +0.066 C 
ENDBRANCH  19  20
ENDBRANCH  18  19
ENDBRANCH  14  15
ENDBRANCH  12  13
TORSDOF 6
ENDMDL
MODEL 4
REMARK VINA RESULT:      -8.3      1.487      2.050
REMARK  Name = C:\Users\Docking\Desktop\test protocol\1iep_ligandH.pdb
REMARK  8 active torsions:
REMARK  status: ('A' for Active; 'I' for Inactive)
REMARK    1  A    between atoms: _5  and  _11
REMARK    2  A    between atoms: _19  and  _21
REMARK    3  A    between atoms: _22  and  _66
REMARK    4  A    between atoms: _27  and  _30
REMARK    5  A    between atoms: _32  and  _33
REMARK    6  A    between atoms: _38  and  _43
REMARK    7  A    between atoms: _43  and  _46
REMARK    8  A    between atoms: _53  and  _55
REMARK                            x       y       z     vdW  Elec       q    Type
REMARK                         _______ _______ _______ _____ _____    ______ ____
ROOT
ATOM     10  C   UNL     1     117.925  55.126  18.746  0.00  0.00    +0.038 A 
ATOM     11  C   UNL     1     117.840  54.079  17.793  0.00  0.00    +0.047 A 
ATOM     12  C   UNL     1     118.136  54.314  16.388  0.00  0.00    +0.035 A 
ATOM     32  C   UNL     1     118.520  55.627  15.989  0.00  0.00    +0.024 A 
ATOM     33  C   UNL     1     118.611  56.703  16.944  0.00  0.00    +0.007 A 
ATOM     34  C   UNL     1     118.317  56.478  18.331  0.00  0.00    -0.029 A 
ATOM     35  C   UNL     1     118.425  57.671  19.309  0.00  0.00    +0.045 C 
ENDROOT
BRANCH  10   9
ATOM      4  C   UNL     1     119.198  53.741  23.161  0.00  0.00    +0.077 A 
ATOM      5  C   UNL     1     120.562  53.535  22.768  0.00  0.00    +0.048 A 
ATOM      6  C   UNL     1     120.893  53.790  21.418  0.00  0.00    +0.116 A 
ATOM      7  N   UNL     1     119.925  54.219  20.537  0.00  0.00    -0.223 NA
ATOM      8  C   UNL     1     118.618  54.406  20.949  0.00  0.00    +0.220 A 
ATOM      9  N   UNL     1     117.629  54.844  20.081  0.00  0.00    -0.283 N 
ATOM     36  H   UNL     1     116.676  54.962  20.422  0.00  0.00    +0.155 HD
ATOM     37  N   UNL     1     118.276  54.168  22.232  0.00  0.00    -0.214 NA
BRANCH   4   3
ATOM      1  C   UNL     1     118.843  52.474  26.845  0.00  0.00    +0.020 A 
ATOM      2  C   UNL     1     119.372  52.656  25.513  0.00  0.00    +0.013 A 
ATOM      3  C   UNL     1     118.693  53.517  24.553  0.00  0.00    +0.019 A 
ATOM     38  C   UNL     1     117.472  54.186  24.976  0.00  0.00    +0.120 A 
ATOM     39  N   UNL     1     116.985  53.991  26.265  0.00  0.00    -0.263 NA
ATOM     40  C   UNL     1     117.629  53.163  27.197  0.00  0.00    +0.111 A 
ENDBRANCH   4   3
ENDBRANCH  10   9
BRANCH  12  13
ATOM     13  N   UNL     1     118.059  53.292  15.374  0.00  0.00    -0.281 N 
ATOM     14  C   UNL     1     119.064  52.443  14.941  0.00  0.00    +0.248 C 
ATOM     30  O   UNL     1     120.248  52.579  15.214  0.00  0.00    -0.270 OA
ATOM     31  H   UNL     1     117.152  53.180  14.919  0.00  0.00    +0.155 HD
BRANCH  14  15
ATOM     15  C   UNL     1     118.705  51.284  14.069  0.00  0.00    +0.037 A 
ATOM     16  C   UNL     1     117.539  51.332  13.183  0.00  0.00    +0.013 A 
ATOM     17  C   UNL     1     117.205  50.193  12.364  0.00  0.00    +0.005 A 
ATOM     18  C   UNL     1     118.041  48.997  12.427  0.00  0.00    -0.033 A 
ATOM     28  C   UNL     1     119.195  48.978  13.310  0.00  0.00    +0.005 A 
ATOM     29  C   UNL     1     119.525  50.092  14.115  0.00  0.00    +0.013 A 
BRANCH  18  19
ATOM     19  C   UNL     1     117.748  47.728  11.604  0.00  0.00    +0.119 C 
BRANCH  19  20
ATOM     20  N   UNL     1     118.694  47.396  10.498  0.00  0.00    -0.302 NA
ATOM     21  C   UNL     1     117.967  47.159   9.171  0.00  0.00    +0.066 C 
ATOM     22  C   UNL     1     118.974  46.836   8.020  0.00  0.00    -0.064 C 
ATOM     23  N   UNL     1     119.810  45.614   8.405  0.00  0.00    +0.379 N 
ATOM     24  C   UNL     1     120.717  45.272   7.300  0.00  0.00    -0.096 C 
ATOM     25  H   UNL     1     119.110  44.757   8.546  0.00  0.00    -0.082 HD
ATOM     26  C   UNL     1     120.534  45.840   9.724  0.00  0.00    -0.064 C 
ATOM     27  C   UNL     1     119.527  46.190  10.855  0.00  0.00    +0.066 C 
ENDBRANCH  19  20
ENDBRANCH  18  19
ENDBRANCH  14  15
ENDBRANCH  12  13
TORSDOF 6
ENDMDL
MODEL 5
REMARK VINA RESULT:      -8.2      5.235     12.448
REMARK  Name = C:\Users\Docking\Desktop\test protocol\1iep_ligandH.pdb
REMARK  8 active torsions:
REMARK  status: ('A' for Active; 'I' for Inactive)
REMARK    1  A    between atoms: _5  and  _11
REMARK    2  A    between atoms: _19  and  _21
REMARK    3  A    between atoms: _22  and  _66
REMARK    4  A    between atoms: _27  and  _30
REMARK    5  A    between atoms: _32  and  _33
REMARK    6  A    between atoms: _38  and  _43
REMARK    7  A    between atoms: _43  and  _46
REMARK    8  A    between atoms: _53  and  _55
REMARK                            x       y       z     vdW  Elec       q    Type
REMARK                         _______ _______ _______ _____ _____    ______ ____
ROOT
ATOM     10  C   UNL     1     119.879  53.391  18.433  0.00  0.00    +0.038 A 
ATOM     11  C   UNL     1     120.314  54.650  17.946  0.00  0.00    +0.047 A 
ATOM     12  C   UNL     1     120.444  55.796  18.832  0.00  0.00    +0.035 A 
ATOM     32  C   UNL     1     120.124  55.623  20.211  0.00  0.00    +0.024 A 
ATOM     33  C   UNL     1     119.678  54.351  20.722  0.00  0.00    +0.007 A 
ATOM     34  C   UNL     1     119.546  53.218  19.852  0.00  0.00    -0.029 A 
ATOM     35  C   UNL     1     119.058  51.880  20.454  0.00  0.00    +0.045 C 
ENDROOT
BRANCH  10   9
ATOM      4  C   UNL     1     118.467  51.497  14.255  0.00  0.00    +0.077 A 
ATOM      5  C   UNL     1     117.866  52.729  13.832  0.00  0.00    +0.048 A 
ATOM      6  C   UNL     1     117.936  53.824  14.722  0.00  0.00    +0.116 A 
ATOM      7  N   UNL     1     118.563  53.686  15.941  0.00  0.00    -0.223 NA
ATOM      8  C   UNL     1     119.130  52.483  16.319  0.00  0.00    +0.220 A 
ATOM      9  N   UNL     1     119.773  52.324  17.537  0.00  0.00    -0.283 N 
ATOM     36  H   UNL     1     120.172  51.419  17.782  0.00  0.00    +0.155 HD
ATOM     37  N   UNL     1     119.076  51.422  15.488  0.00  0.00    -0.214 NA
BRANCH   4   3
ATOM      1  C   UNL     1     117.559  48.772  11.599  0.00  0.00    +0.020 A 
ATOM      2  C   UNL     1     117.504  49.992  12.372  0.00  0.00    +0.013 A 
ATOM      3  C   UNL     1     118.478  50.251  13.425  0.00  0.00    +0.019 A 
ATOM     38  C   UNL     1     119.503  49.248  13.672  0.00  0.00    +0.120 A 
ATOM     39  N   UNL     1     119.530  48.083  12.912  0.00  0.00    -0.263 NA
ATOM     40  C   UNL     1     118.597  47.822  11.897  0.00  0.00    +0.111 A 
ENDBRANCH   4   3
ENDBRANCH  10   9
BRANCH  12  13
ATOM     13  N   UNL     1     120.874  57.100  18.393  0.00  0.00    -0.281 N 
ATOM     14  C   UNL     1     120.091  58.215  18.143  0.00  0.00    +0.248 C 
ATOM     30  O   UNL     1     118.872  58.198  18.053  0.00  0.00    -0.270 OA
ATOM     31  H   UNL     1     121.877  57.216  18.250  0.00  0.00    +0.155 HD
BRANCH  14  15
ATOM     15  C   UNL     1     120.759  59.538  17.951  0.00  0.00    +0.037 A 
ATOM     16  C   UNL     1     120.456  60.676  18.822  0.00  0.00    +0.013 A 
ATOM     17  C   UNL     1     121.102  61.946  18.604  0.00  0.00    +0.005 A 
ATOM     18  C   UNL     1     122.059  62.084  17.509  0.00  0.00    -0.033 A 
ATOM     28  C   UNL     1     122.345  60.937  16.663  0.00  0.00    +0.005 A 
ATOM     29  C   UNL     1     121.713  59.691  16.873  0.00  0.00    +0.013 A 
BRANCH  18  19
ATOM     19  C   UNL     1     122.780  63.407  17.190  0.00  0.00    +0.119 C 
BRANCH  19  20
ATOM     20  N   UNL     1     123.341  63.566  15.815  0.00  0.00    -0.302 NA
ATOM     21  C   UNL     1     124.526  64.535  15.786  0.00  0.00    +0.066 C 
ATOM     22  C   UNL     1     125.115  64.671  14.344  0.00  0.00    -0.064 C 
ATOM     23  N   UNL     1     124.014  65.134  13.389  0.00  0.00    +0.379 N 
ATOM     24  C   UNL     1     124.578  65.320  12.044  0.00  0.00    -0.096 C 
ATOM     25  H   UNL     1     123.653  66.127  13.744  0.00  0.00    -0.082 HD
ATOM     26  C   UNL     1     122.830  64.178  13.413  0.00  0.00    -0.064 C 
ATOM     27  C   UNL     1     122.271  64.026  14.855  0.00  0.00    +0.066 C 
ENDBRANCH  19  20
ENDBRANCH  18  19
ENDBRANCH  14  15
ENDBRANCH  12  13
TORSDOF 6
ENDMDL
