MODEL 1
REMARK VINA RESULT:      -8.1      0.000      0.000
REMARK  Name = C:\Users\Docking\Desktop\test protocol\1iep_ligandH.pdb
REMARK  8 active torsions:
REMARK  status: ('A' for Active; 'I' for Inactive)
REMARK    1  A    between atoms: _5  and  _11
REMARK    2  A    between atoms: _19  and  _21
REMARK    3  A    between atoms: _22  and  _66
REMARK    4  A    between atoms: _27  and  _30
REMARK    5  A    between atoms: _32  and  _33
REMARK    6  A    between atoms: _38  and  _43
REMARK    7  A    between atoms: _43  and  _46
REMARK    8  A    between atoms: _53  and  _55
REMARK                            x       y       z     vdW  Elec       q    Type
REMARK                         _______ _______ _______ _____ _____    ______ ____
ROOT
ATOM     10  C   UNL     1      68.674  53.675  17.474  0.00  0.00    +0.038 A 
ATOM     11  C   UNL     1      69.237  54.887  16.999  0.00  0.00    +0.047 A 
ATOM     12  C   UNL     1      69.191  56.102  17.797  0.00  0.00    +0.035 A 
ATOM     32  C   UNL     1      68.566  56.046  19.077  0.00  0.00    +0.024 A 
ATOM     33  C   UNL     1      67.987  54.823  19.575  0.00  0.00    +0.007 A 
ATOM     34  C   UNL     1      68.027  53.622  18.791  0.00  0.00    -0.029 A 
ATOM     35  C   UNL     1      67.385  52.341  19.372  0.00  0.00    +0.045 C 
ENDROOT
BRANCH  10   9
ATOM      4  C   UNL     1      67.266  51.071  13.696  0.00  0.00    +0.077 A 
ATOM      5  C   UNL     1      66.284  52.046  13.315  0.00  0.00    +0.048 A 
ATOM      6  C   UNL     1      66.168  53.199  14.122  0.00  0.00    +0.116 A 
ATOM      7  N   UNL     1      66.979  53.357  15.225  0.00  0.00    -0.223 NA
ATOM      8  C   UNL     1      67.915  52.397  15.565  0.00  0.00    +0.220 A 
ATOM      9  N   UNL     1      68.746  52.538  16.666  0.00  0.00    -0.283 N 
ATOM     36  H   UNL     1      69.418  51.804  16.887  0.00  0.00    +0.155 HD
ATOM     37  N   UNL     1      68.044  51.285  14.811  0.00  0.00    -0.214 NA
BRANCH   4   3
ATOM      1  C   UNL     1      66.888  48.072  11.213  0.00  0.00    +0.020 A 
ATOM      2  C   UNL     1      66.606  49.305  11.912  0.00  0.00    +0.013 A 
ATOM      3  C   UNL     1      67.510  49.801  12.941  0.00  0.00    +0.019 A 
ATOM     38  C   UNL     1      68.701  49.021  13.241  0.00  0.00    +0.120 A 
ATOM     39  N   UNL     1      68.946  47.837  12.553  0.00  0.00    -0.263 NA
ATOM     40  C   UNL     1      68.082  47.348  11.561  0.00  0.00    +0.111 A 
ENDBRANCH   4   3
ENDBRANCH  10   9
BRANCH  12  13
ATOM     13  N   UNL     1      69.739  57.363  17.364  0.00  0.00    -0.281 N 
ATOM     14  C   UNL     1      71.060  57.662  17.071  0.00  0.00    +0.248 C 
ATOM     30  O   UNL     1      72.009  56.942  17.344  0.00  0.00    -0.270 OA
ATOM     31  H   UNL     1      69.073  58.128  17.261  0.00  0.00    +0.155 HD
BRANCH  14  15
ATOM     15  C   UNL     1      71.373  58.955  16.389  0.00  0.00    +0.037 A 
ATOM     16  C   UNL     1      72.243  59.001  15.211  0.00  0.00    +0.013 A 
ATOM     17  C   UNL     1      72.543  60.263  14.583  0.00  0.00    +0.005 A 
ATOM     18  C   UNL     1      71.970  61.490  15.131  0.00  0.00    -0.033 A 
ATOM     28  C   UNL     1      71.106  61.415  16.297  0.00  0.00    +0.005 A 
ATOM     29  C   UNL     1      70.811  60.180  16.917  0.00  0.00    +0.013 A 
BRANCH  18  19
ATOM     19  C   UNL     1      72.253  62.883  14.537  0.00  0.00    +0.119 C 
BRANCH  19  20
ATOM     20  N   UNL     1      72.519  62.960  13.070  0.00  0.00    -0.302 NA
ATOM     21  C   UNL     1      73.413  64.150  12.710  0.00  0.00    +0.066 C 
ATOM     22  C   UNL     1      73.699  64.202  11.174  0.00  0.00    -0.064 C 
ATOM     23  N   UNL     1      72.374  64.270  10.413  0.00  0.00    +0.379 N 
ATOM     24  C   UNL     1      72.641  64.378   8.971  0.00  0.00    -0.096 C 
ATOM     25  H   UNL     1      71.849  65.201  10.730  0.00  0.00    -0.082 HD
ATOM     26  C   UNL     1      71.478  63.092  10.767  0.00  0.00    -0.064 C 
ATOM     27  C   UNL     1      71.224  63.032  12.299  0.00  0.00    +0.066 C 
ENDBRANCH  19  20
ENDBRANCH  18  19
ENDBRANCH  14  15
ENDBRANCH  12  13
TORSDOF 6
ENDMDL
MODEL 2
REMARK VINA RESULT:      -7.9     16.482     20.112
REMARK  Name = C:\Users\Docking\Desktop\test protocol\1iep_ligandH.pdb
REMARK  8 active torsions:
REMARK  status: ('A' for Active; 'I' for Inactive)
REMARK    1  A    between atoms: _5  and  _11
REMARK    2  A    between atoms: _19  and  _21
REMARK    3  A    between atoms: _22  and  _66
REMARK    4  A    between atoms: _27  and  _30
REMARK    5  A    between atoms: _32  and  _33
REMARK    6  A    between atoms: _38  and  _43
REMARK    7  A    between atoms: _43  and  _46
REMARK    8  A    between atoms: _53  and  _55
REMARK                            x       y       z     vdW  Elec       q    Type
REMARK                         _______ _______ _______ _____ _____    ______ ____
ROOT
ATOM     10  C   UNL     1      76.337  70.477   5.311  0.00  0.00    +0.038 A 
ATOM     11  C   UNL     1      74.974  70.120   5.153  0.00  0.00    +0.047 A 
ATOM     12  C   UNL     1      74.241  70.465   3.944  0.00  0.00    +0.035 A 
ATOM     32  C   UNL     1      74.930  71.170   2.915  0.00  0.00    +0.024 A 
ATOM     33  C   UNL     1      76.315  71.542   3.060  0.00  0.00    +0.007 A 
ATOM     34  C   UNL     1      77.042  71.207   4.251  0.00  0.00    -0.029 A 
ATOM     35  C   UNL     1      78.525  71.636   4.354  0.00  0.00    +0.045 C 
ENDROOT
BRANCH  10   9
ATOM      4  C   UNL     1      77.792  71.407   9.789  0.00  0.00    +0.077 A 
ATOM      5  C   UNL     1      77.223  72.724   9.764  0.00  0.00    +0.048 A 
ATOM      6  C   UNL     1      76.571  73.126   8.577  0.00  0.00    +0.116 A 
ATOM      7  N   UNL     1      76.499  72.267   7.502  0.00  0.00    -0.223 NA
ATOM      8  C   UNL     1      77.060  71.004   7.559  0.00  0.00    +0.220 A 
ATOM      9  N   UNL     1      76.992  70.121   6.492  0.00  0.00    -0.283 N 
ATOM     36  H   UNL     1      77.425  69.201   6.571  0.00  0.00    +0.155 HD
ATOM     37  N   UNL     1      77.689  70.597   8.681  0.00  0.00    -0.214 NA
BRANCH   4   3
ATOM      1  C   UNL     1      79.937  71.056  13.042  0.00  0.00    +0.020 A 
ATOM      2  C   UNL     1      79.262  71.657  11.915  0.00  0.00    +0.013 A 
ATOM      3  C   UNL     1      78.511  70.836  10.973  0.00  0.00    +0.019 A 
ATOM     38  C   UNL     1      78.462  69.400  11.201  0.00  0.00    +0.120 A 
ATOM     39  N   UNL     1      79.124  68.849  12.295  0.00  0.00    -0.263 NA
ATOM     40  C   UNL     1      79.851  69.628  13.207  0.00  0.00    +0.111 A 
ENDBRANCH   4   3
ENDBRANCH  10   9
BRANCH  12  13
ATOM     13  N   UNL     1      72.854  70.136   3.731  0.00  0.00    -0.281 N 
ATOM     14  C   UNL     1      72.318  68.924   3.328  0.00  0.00    +0.248 C 
ATOM     30  O   UNL     1      72.972  67.993   2.883  0.00  0.00    -0.270 OA
ATOM     31  H   UNL     1      72.185  70.889   3.896  0.00  0.00    +0.155 HD
BRANCH  14  15
ATOM     15  C   UNL     1      70.840  68.721   3.421  0.00  0.00    +0.037 A 
ATOM     16  C   UNL     1      70.261  67.768   4.371  0.00  0.00    +0.013 A 
ATOM     17  C   UNL     1      68.833  67.580   4.429  0.00  0.00    +0.005 A 
ATOM     18  C   UNL     1      67.973  68.349   3.532  0.00  0.00    -0.033 A 
ATOM     28  C   UNL     1      68.573  69.292   2.603  0.00  0.00    +0.005 A 
ATOM     29  C   UNL     1      69.972  69.478   2.543  0.00  0.00    +0.013 A 
BRANCH  18  19
ATOM     19  C   UNL     1      66.441  68.197   3.510  0.00  0.00    +0.119 C 
BRANCH  19  20
ATOM     20  N   UNL     1      65.760  68.329   2.187  0.00  0.00    -0.302 NA
ATOM     21  C   UNL     1      64.249  68.104   2.293  0.00  0.00    +0.066 C 
ATOM     22  C   UNL     1      63.550  68.268   0.905  0.00  0.00    -0.064 C 
ATOM     23  N   UNL     1      64.174  67.295  -0.096  0.00  0.00    +0.379 N 
ATOM     24  C   UNL     1      63.480  67.406  -1.387  0.00  0.00    -0.096 C 
ATOM     25  H   UNL     1      64.008  66.262   0.289  0.00  0.00    -0.082 HD
ATOM     26  C   UNL     1      65.677  67.511  -0.206  0.00  0.00    -0.064 C 
ATOM     27  C   UNL     1      66.358  67.374   1.184  0.00  0.00    +0.066 C 
ENDBRANCH  19  20
ENDBRANCH  18  19
ENDBRANCH  14  15
ENDBRANCH  12  13
TORSDOF 6
ENDMDL
MODEL 3
REMARK VINA RESULT:      -7.9      5.424     12.344
REMARK  Name = C:\Users\Docking\Desktop\test protocol\1iep_ligandH.pdb
REMARK  8 active torsions:
REMARK  status: ('A' for Active; 'I' for Inactive)
REMARK    1  A    between atoms: _5  and  _11
REMARK    2  A    between atoms: _19  and  _21
REMARK    3  A    between atoms: _22  and  _66
REMARK    4  A    between atoms: _27  and  _30
REMARK    5  A    between atoms: _32  and  _33
REMARK    6  A    between atoms: _38  and  _43
REMARK    7  A    between atoms: _43  and  _46
REMARK    8  A    between atoms: _53  and  _55
REMARK                            x       y       z     vdW  Elec       q    Type
REMARK                         _______ _______ _______ _____ _____    ______ ____
ROOT
ATOM     10  C   UNL     1      68.138  55.335  18.624  0.00  0.00    +0.038 A 
ATOM     11  C   UNL     1      67.734  54.218  17.848  0.00  0.00    +0.047 A 
ATOM     12  C   UNL     1      68.132  54.085  16.456  0.00  0.00    +0.035 A 
ATOM     32  C   UNL     1      68.946  55.108  15.886  0.00  0.00    +0.024 A 
ATOM     33  C   UNL     1      69.365  56.250  16.659  0.00  0.00    +0.007 A 
ATOM     34  C   UNL     1      68.972  56.387  18.033  0.00  0.00    -0.029 A 
ATOM     35  C   UNL     1      69.445  57.636  18.813  0.00  0.00    +0.045 C 
ENDROOT
BRANCH  10   9
ATOM      4  C   UNL     1      68.167  53.766  23.160  0.00  0.00    +0.077 A 
ATOM      5  C   UNL     1      69.056  52.686  22.843  0.00  0.00    +0.048 A 
ATOM      6  C   UNL     1      69.478  52.565  21.500  0.00  0.00    +0.116 A 
ATOM      7  N   UNL     1      69.036  53.463  20.553  0.00  0.00    -0.223 NA
ATOM      8  C   UNL     1      68.177  54.492  20.891  0.00  0.00    +0.220 A 
ATOM      9  N   UNL     1      67.726  55.411  19.957  0.00  0.00    -0.283 N 
ATOM     36  H   UNL     1      67.087  56.151  20.245  0.00  0.00    +0.155 HD
ATOM     37  N   UNL     1      67.759  54.628  22.167  0.00  0.00    -0.214 NA
BRANCH   4   3
ATOM      1  C   UNL     1      65.783  54.618  26.142  0.00  0.00    +0.020 A 
ATOM      2  C   UNL     1      66.245  54.376  24.795  0.00  0.00    +0.013 A 
ATOM      3  C   UNL     1      67.636  54.027  24.535  0.00  0.00    +0.019 A 
ATOM     38  C   UNL     1      68.541  53.930  25.671  0.00  0.00    +0.120 A 
ATOM     39  N   UNL     1      68.068  54.170  26.957  0.00  0.00    -0.263 NA
ATOM     40  C   UNL     1      66.732  54.508  27.219  0.00  0.00    +0.111 A 
ENDBRANCH   4   3
ENDBRANCH  10   9
BRANCH  12  13
ATOM     13  N   UNL     1      67.746  52.978  15.617  0.00  0.00    -0.281 N 
ATOM     14  C   UNL     1      66.900  52.996  14.519  0.00  0.00    +0.248 C 
ATOM     30  O   UNL     1      66.176  53.933  14.221  0.00  0.00    -0.270 OA
ATOM     31  H   UNL     1      68.144  52.072  15.861  0.00  0.00    +0.155 HD
BRANCH  14  15
ATOM     15  C   UNL     1      66.841  51.793  13.634  0.00  0.00    +0.037 A 
ATOM     16  C   UNL     1      65.565  51.294  13.115  0.00  0.00    +0.013 A 
ATOM     17  C   UNL     1      65.533  50.122  12.278  0.00  0.00    +0.005 A 
ATOM     18  C   UNL     1      66.784  49.440  11.952  0.00  0.00    -0.033 A 
ATOM     28  C   UNL     1      68.036  49.960  12.476  0.00  0.00    +0.005 A 
ATOM     29  C   UNL     1      68.071  51.108  13.299  0.00  0.00    +0.013 A 
BRANCH  18  19
ATOM     19  C   UNL     1      66.843  48.170  11.083  0.00  0.00    +0.119 C 
BRANCH  19  20
ATOM     20  N   UNL     1      67.466  46.956  11.688  0.00  0.00    -0.302 NA
ATOM     21  C   UNL     1      67.310  45.723  10.793  0.00  0.00    +0.066 C 
ATOM     22  C   UNL     1      67.987  44.467  11.431  0.00  0.00    -0.064 C 
ATOM     23  N   UNL     1      67.383  44.212  12.813  0.00  0.00    +0.379 N 
ATOM     24  C   UNL     1      67.976  42.998  13.392  0.00  0.00    -0.096 C 
ATOM     25  H   UNL     1      66.293  44.024  12.676  0.00  0.00    -0.082 HD
ATOM     26  C   UNL     1      67.531  45.434  13.709  0.00  0.00    -0.064 C 
ATOM     27  C   UNL     1      66.881  46.683  13.052  0.00  0.00    +0.066 C 
ENDBRANCH  19  20
ENDBRANCH  18  19
ENDBRANCH  14  15
ENDBRANCH  12  13
TORSDOF 6
ENDMDL
MODEL 4
REMARK VINA RESULT:      -7.8      5.769     10.677
REMARK  Name = C:\Users\Docking\Desktop\test protocol\1iep_ligandH.pdb
REMARK  8 active torsions:
REMARK  status: ('A' for Active; 'I' for Inactive)
REMARK    1  A    between atoms: _5  and  _11
REMARK    2  A    between atoms: _19  and  _21
REMARK    3  A    between atoms: _22  and  _66
REMARK    4  A    between atoms: _27  and  _30
REMARK    5  A    between atoms: _32  and  _33
REMARK    6  A    between atoms: _38  and  _43
REMARK    7  A    between atoms: _43  and  _46
REMARK    8  A    between atoms: _53  and  _55
REMARK                            x       y       z     vdW  Elec       q    Type
REMARK                         _______ _______ _______ _____ _____    ______ ____
ROOT
ATOM     10  C   UNL     1      69.380  53.787  18.457  0.00  0.00    +0.038 A 
ATOM     11  C   UNL     1      68.620  53.817  19.654  0.00  0.00    +0.047 A 
ATOM     12  C   UNL     1      68.858  54.830  20.670  0.00  0.00    +0.035 A 
ATOM     32  C   UNL     1      69.875  55.800  20.433  0.00  0.00    +0.024 A 
ATOM     33  C   UNL     1      70.658  55.783  19.222  0.00  0.00    +0.007 A 
ATOM     34  C   UNL     1      70.430  54.784  18.217  0.00  0.00    -0.029 A 
ATOM     35  C   UNL     1      71.303  54.810  16.941  0.00  0.00    +0.045 C 
ENDROOT
BRANCH  10   9
ATOM      4  C   UNL     1      67.200  52.195  14.487  0.00  0.00    +0.077 A 
ATOM      5  C   UNL     1      66.522  53.444  14.288  0.00  0.00    +0.048 A 
ATOM      6  C   UNL     1      66.756  54.467  15.233  0.00  0.00    +0.116 A 
ATOM      7  N   UNL     1      67.607  54.248  16.295  0.00  0.00    -0.223 NA
ATOM      8  C   UNL     1      68.243  53.031  16.459  0.00  0.00    +0.220 A 
ATOM      9  N   UNL     1      69.109  52.791  17.515  0.00  0.00    -0.283 N 
ATOM     36  H   UNL     1      69.554  51.878  17.605  0.00  0.00    +0.155 HD
ATOM     37  N   UNL     1      68.036  52.037  15.571  0.00  0.00    -0.214 NA
BRANCH   4   3
ATOM      1  C   UNL     1      65.789  49.639  11.884  0.00  0.00    +0.020 A 
ATOM      2  C   UNL     1      65.876  50.792  12.752  0.00  0.00    +0.013 A 
ATOM      3  C   UNL     1      67.059  51.019  13.573  0.00  0.00    +0.019 A 
ATOM     38  C   UNL     1      68.145  50.054  13.491  0.00  0.00    +0.120 A 
ATOM     39  N   UNL     1      68.033  48.953  12.648  0.00  0.00    -0.263 NA
ATOM     40  C   UNL     1      66.899  48.723  11.855  0.00  0.00    +0.111 A 
ENDBRANCH   4   3
ENDBRANCH  10   9
BRANCH  12  13
ATOM     13  N   UNL     1      68.124  54.906  21.909  0.00  0.00    -0.281 N 
ATOM     14  C   UNL     1      68.442  54.324  23.125  0.00  0.00    +0.248 C 
ATOM     30  O   UNL     1      69.300  53.467  23.277  0.00  0.00    -0.270 OA
ATOM     31  H   UNL     1      67.265  55.457  21.887  0.00  0.00    +0.155 HD
BRANCH  14  15
ATOM     15  C   UNL     1      67.688  54.742  24.346  0.00  0.00    +0.037 A 
ATOM     16  C   UNL     1      66.554  53.959  24.844  0.00  0.00    +0.013 A 
ATOM     17  C   UNL     1      65.833  54.395  26.014  0.00  0.00    +0.005 A 
ATOM     18  C   UNL     1      66.246  55.619  26.695  0.00  0.00    -0.033 A 
ATOM     28  C   UNL     1      67.378  56.374  26.182  0.00  0.00    +0.005 A 
ATOM     29  C   UNL     1      68.086  55.951  25.035  0.00  0.00    +0.013 A 
BRANCH  18  19
ATOM     19  C   UNL     1      65.522  56.170  27.938  0.00  0.00    +0.119 C 
BRANCH  19  20
ATOM     20  N   UNL     1      64.094  56.574  27.774  0.00  0.00    -0.302 NA
ATOM     21  C   UNL     1      63.136  55.396  27.979  0.00  0.00    +0.066 C 
ATOM     22  C   UNL     1      61.645  55.842  27.826  0.00  0.00    -0.064 C 
ATOM     23  N   UNL     1      61.443  56.470  26.446  0.00  0.00    +0.379 N 
ATOM     24  C   UNL     1      60.029  56.837  26.278  0.00  0.00    -0.096 C 
ATOM     25  H   UNL     1      61.685  55.695  25.683  0.00  0.00    -0.082 HD
ATOM     26  C   UNL     1      62.393  57.640  26.233  0.00  0.00    -0.064 C 
ATOM     27  C   UNL     1      63.870  57.194  26.416  0.00  0.00    +0.066 C 
ENDBRANCH  19  20
ENDBRANCH  18  19
ENDBRANCH  14  15
ENDBRANCH  12  13
TORSDOF 6
ENDMDL
MODEL 5
REMARK VINA RESULT:      -7.8      2.314      2.883
REMARK  Name = C:\Users\Docking\Desktop\test protocol\1iep_ligandH.pdb
REMARK  8 active torsions:
REMARK  status: ('A' for Active; 'I' for Inactive)
REMARK    1  A    between atoms: _5  and  _11
REMARK    2  A    between atoms: _19  and  _21
REMARK    3  A    between atoms: _22  and  _66
REMARK    4  A    between atoms: _27  and  _30
REMARK    5  A    between atoms: _32  and  _33
REMARK    6  A    between atoms: _38  and  _43
REMARK    7  A    between atoms: _43  and  _46
REMARK    8  A    between atoms: _53  and  _55
REMARK                            x       y       z     vdW  Elec       q    Type
REMARK                         _______ _______ _______ _____ _____    ______ ____
ROOT
ATOM     10  C   UNL     1      68.860  53.477  18.663  0.00  0.00    +0.038 A 
ATOM     11  C   UNL     1      69.295  54.776  18.293  0.00  0.00    +0.047 A 
ATOM     12  C   UNL     1      69.432  55.833  19.283  0.00  0.00    +0.035 A 
ATOM     32  C   UNL     1      69.120  55.533  20.640  0.00  0.00    +0.024 A 
ATOM     33  C   UNL     1      68.675  54.219  21.034  0.00  0.00    +0.007 A 
ATOM     34  C   UNL     1      68.536  53.172  20.062  0.00  0.00    -0.029 A 
ATOM     35  C   UNL     1      68.050  51.784  20.539  0.00  0.00    +0.045 C 
ENDROOT
BRANCH  10   9
ATOM      4  C   UNL     1      67.244  51.917  14.421  0.00  0.00    +0.077 A 
ATOM      5  C   UNL     1      66.545  53.144  14.170  0.00  0.00    +0.048 A 
ATOM      6  C   UNL     1      66.620  54.149  15.161  0.00  0.00    +0.116 A 
ATOM      7  N   UNL     1      67.344  53.932  16.313  0.00  0.00    -0.223 NA
ATOM      8  C   UNL     1      68.006  52.736  16.524  0.00  0.00    +0.220 A 
ATOM      9  N   UNL     1      68.747  52.499  17.672  0.00  0.00    -0.283 N 
ATOM     36  H   UNL     1      69.214  51.601  17.794  0.00  0.00    +0.155 HD
ATOM     37  N   UNL     1      67.948  51.761  15.594  0.00  0.00    -0.214 NA
BRANCH   4   3
ATOM      1  C   UNL     1      66.221  49.328  11.674  0.00  0.00    +0.020 A 
ATOM      2  C   UNL     1      66.153  50.455  12.575  0.00  0.00    +0.013 A 
ATOM      3  C   UNL     1      67.263  50.762  13.469  0.00  0.00    +0.019 A 
ATOM     38  C   UNL     1      68.437  49.903  13.424  0.00  0.00    +0.120 A 
ATOM     39  N   UNL     1      68.473  48.824  12.547  0.00  0.00    -0.263 NA
ATOM     40  C   UNL     1      67.411  48.518  11.684  0.00  0.00    +0.111 A 
ENDBRANCH   4   3
ENDBRANCH  10   9
BRANCH  12  13
ATOM     13  N   UNL     1      69.861  57.173  18.965  0.00  0.00    -0.281 N 
ATOM     14  C   UNL     1      69.164  58.356  19.147  0.00  0.00    +0.248 C 
ATOM     30  O   UNL     1      67.973  58.423  19.415  0.00  0.00    -0.270 OA
ATOM     31  H   UNL     1      70.792  57.259  18.557  0.00  0.00    +0.155 HD
BRANCH  14  15
ATOM     15  C   UNL     1      69.891  59.653  18.995  0.00  0.00    +0.037 A 
ATOM     16  C   UNL     1      69.295  60.915  19.441  0.00  0.00    +0.013 A 
ATOM     17  C   UNL     1      70.010  62.154  19.267  0.00  0.00    +0.005 A 
ATOM     18  C   UNL     1      71.332  62.137  18.645  0.00  0.00    -0.033 A 
ATOM     28  C   UNL     1      71.902  60.870  18.217  0.00  0.00    +0.005 A 
ATOM     29  C   UNL     1      71.203  59.654  18.384  0.00  0.00    +0.013 A 
BRANCH  18  19
ATOM     19  C   UNL     1      72.158  63.413  18.401  0.00  0.00    +0.119 C 
BRANCH  19  20
ATOM     20  N   UNL     1      72.490  63.753  16.985  0.00  0.00    -0.302 NA
ATOM     21  C   UNL     1      73.694  64.693  16.886  0.00  0.00    +0.066 C 
ATOM     22  C   UNL     1      74.041  65.019  15.397  0.00  0.00    -0.064 C 
ATOM     23  N   UNL     1      72.817  65.633  14.714  0.00  0.00    +0.379 N 
ATOM     24  C   UNL     1      73.157  65.995  13.330  0.00  0.00    -0.096 C 
ATOM     25  H   UNL     1      72.564  66.573  15.257  0.00  0.00    -0.082 HD
ATOM     26  C   UNL     1      71.614  64.706  14.810  0.00  0.00    -0.064 C 
ATOM     27  C   UNL     1      71.296  64.364  16.293  0.00  0.00    +0.066 C 
ENDBRANCH  19  20
ENDBRANCH  18  19
ENDBRANCH  14  15
ENDBRANCH  12  13
TORSDOF 6
ENDMDL
