MODEL 1
REMARK VINA RESULT:      -8.3      0.000      0.000
REMARK  Name = C:\Users\Docking\Desktop\test protocol\1iep_ligandH.pdb
REMARK  8 active torsions:
REMARK  status: ('A' for Active; 'I' for Inactive)
REMARK    1  A    between atoms: _5  and  _11
REMARK    2  A    between atoms: _19  and  _21
REMARK    3  A    between atoms: _22  and  _66
REMARK    4  A    between atoms: _27  and  _30
REMARK    5  A    between atoms: _32  and  _33
REMARK    6  A    between atoms: _38  and  _43
REMARK    7  A    between atoms: _43  and  _46
REMARK    8  A    between atoms: _53  and  _55
REMARK                            x       y       z     vdW  Elec       q    Type
REMARK                         _______ _______ _______ _____ _____    ______ ____
ROOT
ATOM     10  C   UNL     1      68.752  53.782  17.491  0.00  0.00    +0.038 A 
ATOM     11  C   UNL     1      69.355  54.973  17.015  0.00  0.00    +0.047 A 
ATOM     12  C   UNL     1      69.356  56.188  17.815  0.00  0.00    +0.035 A 
ATOM     32  C   UNL     1      68.736  56.153  19.097  0.00  0.00    +0.024 A 
ATOM     33  C   UNL     1      68.116  54.951  19.597  0.00  0.00    +0.007 A 
ATOM     34  C   UNL     1      68.110  53.750  18.811  0.00  0.00    -0.029 A 
ATOM     35  C   UNL     1      67.425  52.492  19.395  0.00  0.00    +0.045 C 
ENDROOT
BRANCH  10   9
ATOM      4  C   UNL     1      67.190  51.207  13.753  0.00  0.00    +0.077 A 
ATOM      5  C   UNL     1      66.218  52.201  13.400  0.00  0.00    +0.048 A 
ATOM      6  C   UNL     1      66.147  53.357  14.209  0.00  0.00    +0.116 A 
ATOM      7  N   UNL     1      66.991  53.498  15.290  0.00  0.00    -0.223 NA
ATOM      8  C   UNL     1      67.916  52.520  15.604  0.00  0.00    +0.220 A 
ATOM      9  N   UNL     1      68.780  52.644  16.682  0.00  0.00    -0.283 N 
ATOM     36  H   UNL     1      69.443  51.897  16.885  0.00  0.00    +0.155 HD
ATOM     37  N   UNL     1      68.003  51.406  14.848  0.00  0.00    -0.214 NA
BRANCH   4   3
ATOM      1  C   UNL     1      66.613  48.132  11.406  0.00  0.00    +0.020 A 
ATOM      2  C   UNL     1      66.371  49.366  12.118  0.00  0.00    +0.013 A 
ATOM      3  C   UNL     1      67.389  49.933  12.993  0.00  0.00    +0.019 A 
ATOM     38  C   UNL     1      68.652  49.222  13.126  0.00  0.00    +0.120 A 
ATOM     39  N   UNL     1      68.856  48.036  12.429  0.00  0.00    -0.263 NA
ATOM     40  C   UNL     1      67.883  47.479  11.585  0.00  0.00    +0.111 A 
ENDBRANCH   4   3
ENDBRANCH  10   9
BRANCH  12  13
ATOM     13  N   UNL     1      69.947  57.430  17.380  0.00  0.00    -0.281 N 
ATOM     14  C   UNL     1      71.227  57.641  16.894  0.00  0.00    +0.248 C 
ATOM     30  O   UNL     1      72.134  56.825  16.961  0.00  0.00    -0.270 OA
ATOM     31  H   UNL     1      69.348  58.254  17.437  0.00  0.00    +0.155 HD
BRANCH  14  15
ATOM     15  C   UNL     1      71.550  58.952  16.255  0.00  0.00    +0.037 A 
ATOM     16  C   UNL     1      72.516  59.045  15.157  0.00  0.00    +0.013 A 
ATOM     17  C   UNL     1      72.822  60.325  14.570  0.00  0.00    +0.005 A 
ATOM     18  C   UNL     1      72.160  61.524  15.079  0.00  0.00    -0.033 A 
ATOM     28  C   UNL     1      71.202  61.402  16.166  0.00  0.00    +0.005 A 
ATOM     29  C   UNL     1      70.900  60.149  16.745  0.00  0.00    +0.013 A 
BRANCH  18  19
ATOM     19  C   UNL     1      72.441  62.934  14.526  0.00  0.00    +0.119 C 
BRANCH  19  20
ATOM     20  N   UNL     1      72.723  63.051  13.065  0.00  0.00    -0.302 NA
ATOM     21  C   UNL     1      73.274  64.432  12.695  0.00  0.00    +0.066 C 
ATOM     22  C   UNL     1      73.584  64.530  11.166  0.00  0.00    -0.064 C 
ATOM     23  N   UNL     1      72.314  64.223  10.370  0.00  0.00    +0.379 N 
ATOM     24  C   UNL     1      72.588  64.371   8.933  0.00  0.00    -0.096 C 
ATOM     25  H   UNL     1      71.549  64.983  10.649  0.00  0.00    -0.082 HD
ATOM     26  C   UNL     1      71.758  62.853  10.733  0.00  0.00    -0.064 C 
ATOM     27  C   UNL     1      71.481  62.756  12.260  0.00  0.00    +0.066 C 
ENDBRANCH  19  20
ENDBRANCH  18  19
ENDBRANCH  14  15
ENDBRANCH  12  13
TORSDOF 6
ENDMDL
MODEL 2
REMARK VINA RESULT:      -8.1      0.776      1.136
REMARK  Name = C:\Users\Docking\Desktop\test protocol\1iep_ligandH.pdb
REMARK  8 active torsions:
REMARK  status: ('A' for Active; 'I' for Inactive)
REMARK    1  A    between atoms: _5  and  _11
REMARK    2  A    between atoms: _19  and  _21
REMARK    3  A    between atoms: _22  and  _66
REMARK    4  A    between atoms: _27  and  _30
REMARK    5  A    between atoms: _32  and  _33
REMARK    6  A    between atoms: _38  and  _43
REMARK    7  A    between atoms: _43  and  _46
REMARK    8  A    between atoms: _53  and  _55
REMARK                            x       y       z     vdW  Elec       q    Type
REMARK                         _______ _______ _______ _____ _____    ______ ____
ROOT
ATOM     10  C   UNL     1      68.603  53.754  18.118  0.00  0.00    +0.038 A 
ATOM     11  C   UNL     1      69.118  55.004  17.687  0.00  0.00    +0.047 A 
ATOM     12  C   UNL     1      69.112  56.163  18.565  0.00  0.00    +0.035 A 
ATOM     32  C   UNL     1      68.575  56.014  19.877  0.00  0.00    +0.024 A 
ATOM     33  C   UNL     1      68.047  54.752  20.331  0.00  0.00    +0.007 A 
ATOM     34  C   UNL     1      68.048  53.605  19.468  0.00  0.00    -0.029 A 
ATOM     35  C   UNL     1      67.463  52.279  20.006  0.00  0.00    +0.045 C 
ENDROOT
BRANCH  10   9
ATOM      4  C   UNL     1      67.224  51.542  14.088  0.00  0.00    +0.077 A 
ATOM      5  C   UNL     1      66.346  52.618  13.727  0.00  0.00    +0.048 A 
ATOM      6  C   UNL     1      66.273  53.719  14.610  0.00  0.00    +0.116 A 
ATOM      7  N   UNL     1      67.027  53.733  15.763  0.00  0.00    -0.223 NA
ATOM      8  C   UNL     1      67.862  52.678  16.082  0.00  0.00    +0.220 A 
ATOM      9  N   UNL     1      68.635  52.674  17.233  0.00  0.00    -0.283 N 
ATOM     36  H   UNL     1      69.233  51.873  17.436  0.00  0.00    +0.155 HD
ATOM     37  N   UNL     1      67.948  51.614  15.257  0.00  0.00    -0.214 NA
BRANCH   4   3
ATOM      1  C   UNL     1      66.664  48.664  11.498  0.00  0.00    +0.020 A 
ATOM      2  C   UNL     1      66.433  49.860  12.276  0.00  0.00    +0.013 A 
ATOM      3  C   UNL     1      67.412  50.311  13.256  0.00  0.00    +0.019 A 
ATOM     38  C   UNL     1      68.624  49.524  13.427  0.00  0.00    +0.120 A 
ATOM     39  N   UNL     1      68.819  48.376  12.665  0.00  0.00    -0.263 NA
ATOM     40  C   UNL     1      67.883  47.931  11.720  0.00  0.00    +0.111 A 
ENDBRANCH   4   3
ENDBRANCH  10   9
BRANCH  12  13
ATOM     13  N   UNL     1      69.614  57.459  18.180  0.00  0.00    -0.281 N 
ATOM     14  C   UNL     1      70.911  57.803  17.838  0.00  0.00    +0.248 C 
ATOM     30  O   UNL     1      71.886  57.088  18.019  0.00  0.00    -0.270 OA
ATOM     31  H   UNL     1      68.929  58.215  18.157  0.00  0.00    +0.155 HD
BRANCH  14  15
ATOM     15  C   UNL     1      71.165  59.139  17.219  0.00  0.00    +0.037 A 
ATOM     16  C   UNL     1      70.895  60.380  17.951  0.00  0.00    +0.013 A 
ATOM     17  C   UNL     1      71.132  61.656  17.324  0.00  0.00    +0.005 A 
ATOM     18  C   UNL     1      71.646  61.697  15.957  0.00  0.00    -0.033 A 
ATOM     28  C   UNL     1      71.910  60.452  15.256  0.00  0.00    +0.005 A 
ATOM     29  C   UNL     1      71.678  59.199  15.867  0.00  0.00    +0.013 A 
BRANCH  18  19
ATOM     19  C   UNL     1      71.909  63.014  15.202  0.00  0.00    +0.119 C 
BRANCH  19  20
ATOM     20  N   UNL     1      72.310  62.911  13.767  0.00  0.00    -0.302 NA
ATOM     21  C   UNL     1      73.497  63.821  13.436  0.00  0.00    +0.066 C 
ATOM     22  C   UNL     1      73.918  63.684  11.937  0.00  0.00    -0.064 C 
ATOM     23  N   UNL     1      72.721  64.009  11.042  0.00  0.00    +0.379 N 
ATOM     24  C   UNL     1      73.129  63.937   9.632  0.00  0.00    -0.096 C 
ATOM     25  H   UNL     1      72.416  65.060  11.254  0.00  0.00    -0.082 HD
ATOM     26  C   UNL     1      71.535  63.111  11.366  0.00  0.00    -0.064 C 
ATOM     27  C   UNL     1      71.144  63.232  12.866  0.00  0.00    +0.066 C 
ENDBRANCH  19  20
ENDBRANCH  18  19
ENDBRANCH  14  15
ENDBRANCH  12  13
TORSDOF 6
ENDMDL
MODEL 3
REMARK VINA RESULT:      -8.0      0.787      1.030
REMARK  Name = C:\Users\Docking\Desktop\test protocol\1iep_ligandH.pdb
REMARK  8 active torsions:
REMARK  status: ('A' for Active; 'I' for Inactive)
REMARK    1  A    between atoms: _5  and  _11
REMARK    2  A    between atoms: _19  and  _21
REMARK    3  A    between atoms: _22  and  _66
REMARK    4  A    between atoms: _27  and  _30
REMARK    5  A    between atoms: _32  and  _33
REMARK    6  A    between atoms: _38  and  _43
REMARK    7  A    between atoms: _43  and  _46
REMARK    8  A    between atoms: _53  and  _55
REMARK                            x       y       z     vdW  Elec       q    Type
REMARK                         _______ _______ _______ _____ _____    ______ ____
ROOT
ATOM     10  C   UNL     1      68.768  53.748  17.403  0.00  0.00    +0.038 A 
ATOM     11  C   UNL     1      69.393  54.913  16.890  0.00  0.00    +0.047 A 
ATOM     12  C   UNL     1      69.406  56.156  17.647  0.00  0.00    +0.035 A 
ATOM     32  C   UNL     1      68.775  56.175  18.925  0.00  0.00    +0.024 A 
ATOM     33  C   UNL     1      68.133  55.000  19.460  0.00  0.00    +0.007 A 
ATOM     34  C   UNL     1      68.115  53.773  18.717  0.00  0.00    -0.029 A 
ATOM     35  C   UNL     1      67.407  52.546  19.338  0.00  0.00    +0.045 C 
ENDROOT
BRANCH  10   9
ATOM      4  C   UNL     1      67.209  51.074  13.734  0.00  0.00    +0.077 A 
ATOM      5  C   UNL     1      66.260  52.073  13.332  0.00  0.00    +0.048 A 
ATOM      6  C   UNL     1      66.200  53.257  14.100  0.00  0.00    +0.116 A 
ATOM      7  N   UNL     1      67.032  53.420  15.187  0.00  0.00    -0.223 NA
ATOM      8  C   UNL     1      67.934  52.437  15.549  0.00  0.00    +0.220 A 
ATOM      9  N   UNL     1      68.785  52.583  16.633  0.00  0.00    -0.283 N 
ATOM     36  H   UNL     1      69.431  51.831  16.872  0.00  0.00    +0.155 HD
ATOM     37  N   UNL     1      68.010  51.296  14.832  0.00  0.00    -0.214 NA
BRANCH   4   3
ATOM      1  C   UNL     1      68.619  47.607  12.600  0.00  0.00    +0.020 A 
ATOM      2  C   UNL     1      68.487  48.854  13.318  0.00  0.00    +0.013 A 
ATOM      3  C   UNL     1      67.393  49.771  13.021  0.00  0.00    +0.019 A 
ATOM     38  C   UNL     1      66.444  49.393  11.986  0.00  0.00    +0.120 A 
ATOM     39  N   UNL     1      66.598  48.186  11.311  0.00  0.00    -0.263 NA
ATOM     40  C   UNL     1      67.647  47.296  11.586  0.00  0.00    +0.111 A 
ENDBRANCH   4   3
ENDBRANCH  10   9
BRANCH  12  13
ATOM     13  N   UNL     1      70.019  57.372  17.174  0.00  0.00    -0.281 N 
ATOM     14  C   UNL     1      71.335  57.569  16.789  0.00  0.00    +0.248 C 
ATOM     30  O   UNL     1      72.242  56.777  16.996  0.00  0.00    -0.270 OA
ATOM     31  H   UNL     1      69.408  58.187  17.117  0.00  0.00    +0.155 HD
BRANCH  14  15
ATOM     15  C   UNL     1      71.699  58.836  16.085  0.00  0.00    +0.037 A 
ATOM     16  C   UNL     1      72.740  58.861  15.055  0.00  0.00    +0.013 A 
ATOM     17  C   UNL     1      73.084  60.100  14.403  0.00  0.00    +0.005 A 
ATOM     18  C   UNL     1      72.383  61.325  14.779  0.00  0.00    -0.033 A 
ATOM     28  C   UNL     1      71.350  61.271  15.800  0.00  0.00    +0.005 A 
ATOM     29  C   UNL     1      71.012  60.059  16.442  0.00  0.00    +0.013 A 
BRANCH  18  19
ATOM     19  C   UNL     1      72.699  62.695  14.151  0.00  0.00    +0.119 C 
BRANCH  19  20
ATOM     20  N   UNL     1      72.641  62.795  12.662  0.00  0.00    -0.302 NA
ATOM     21  C   UNL     1      74.031  62.702  12.025  0.00  0.00    +0.066 C 
ATOM     22  C   UNL     1      73.950  62.785  10.466  0.00  0.00    -0.064 C 
ATOM     23  N   UNL     1      73.255  64.087  10.063  0.00  0.00    +0.379 N 
ATOM     24  C   UNL     1      73.229  64.196   8.597  0.00  0.00    -0.096 C 
ATOM     25  H   UNL     1      73.869  64.932  10.454  0.00  0.00    -0.082 HD
ATOM     26  C   UNL     1      71.874  64.189  10.694  0.00  0.00    -0.064 C 
ATOM     27  C   UNL     1      71.963  64.076  12.241  0.00  0.00    +0.066 C 
ENDBRANCH  19  20
ENDBRANCH  18  19
ENDBRANCH  14  15
ENDBRANCH  12  13
TORSDOF 6
ENDMDL
MODEL 4
REMARK VINA RESULT:      -7.9      5.879     10.802
REMARK  Name = C:\Users\Docking\Desktop\test protocol\1iep_ligandH.pdb
REMARK  8 active torsions:
REMARK  status: ('A' for Active; 'I' for Inactive)
REMARK    1  A    between atoms: _5  and  _11
REMARK    2  A    between atoms: _19  and  _21
REMARK    3  A    between atoms: _22  and  _66
REMARK    4  A    between atoms: _27  and  _30
REMARK    5  A    between atoms: _32  and  _33
REMARK    6  A    between atoms: _38  and  _43
REMARK    7  A    between atoms: _43  and  _46
REMARK    8  A    between atoms: _53  and  _55
REMARK                            x       y       z     vdW  Elec       q    Type
REMARK                         _______ _______ _______ _____ _____    ______ ____
ROOT
ATOM     10  C   UNL     1      69.443  53.923  18.805  0.00  0.00    +0.038 A 
ATOM     11  C   UNL     1      68.630  53.972  19.966  0.00  0.00    +0.047 A 
ATOM     12  C   UNL     1      68.867  54.957  21.009  0.00  0.00    +0.035 A 
ATOM     32  C   UNL     1      69.939  55.881  20.836  0.00  0.00    +0.024 A 
ATOM     33  C   UNL     1      70.776  55.845  19.662  0.00  0.00    +0.007 A 
ATOM     34  C   UNL     1      70.548  54.873  18.631  0.00  0.00    -0.029 A 
ATOM     35  C   UNL     1      71.480  54.876  17.397  0.00  0.00    +0.045 C 
ENDROOT
BRANCH  10   9
ATOM      4  C   UNL     1      67.337  52.480  14.740  0.00  0.00    +0.077 A 
ATOM      5  C   UNL     1      66.705  53.753  14.546  0.00  0.00    +0.048 A 
ATOM      6  C   UNL     1      66.941  54.750  15.519  0.00  0.00    +0.116 A 
ATOM      7  N   UNL     1      67.752  54.483  16.601  0.00  0.00    -0.223 NA
ATOM      8  C   UNL     1      68.345  53.244  16.759  0.00  0.00    +0.220 A 
ATOM      9  N   UNL     1      69.170  52.955  17.835  0.00  0.00    -0.283 N 
ATOM     36  H   UNL     1      69.583  52.027  17.919  0.00  0.00    +0.155 HD
ATOM     37  N   UNL     1      68.134  52.275  15.844  0.00  0.00    -0.214 NA
BRANCH   4   3
ATOM      1  C   UNL     1      65.893  49.978  12.103  0.00  0.00    +0.020 A 
ATOM      2  C   UNL     1      65.987  51.107  12.999  0.00  0.00    +0.013 A 
ATOM      3  C   UNL     1      67.187  51.327  13.797  0.00  0.00    +0.019 A 
ATOM     38  C   UNL     1      68.282  50.378  13.663  0.00  0.00    +0.120 A 
ATOM     39  N   UNL     1      68.163  49.299  12.793  0.00  0.00    -0.263 NA
ATOM     40  C   UNL     1      67.012  49.077  12.021  0.00  0.00    +0.111 A 
ENDBRANCH   4   3
ENDBRANCH  10   9
BRANCH  12  13
ATOM     13  N   UNL     1      68.081  55.050  22.214  0.00  0.00    -0.281 N 
ATOM     14  C   UNL     1      68.369  54.523  23.462  0.00  0.00    +0.248 C 
ATOM     30  O   UNL     1      69.251  53.705  23.680  0.00  0.00    -0.270 OA
ATOM     31  H   UNL     1      67.204  55.567  22.138  0.00  0.00    +0.155 HD
BRANCH  14  15
ATOM     15  C   UNL     1      67.551  54.956  24.636  0.00  0.00    +0.037 A 
ATOM     16  C   UNL     1      67.872  56.178  25.377  0.00  0.00    +0.013 A 
ATOM     17  C   UNL     1      67.077  56.564  26.515  0.00  0.00    +0.005 A 
ATOM     18  C   UNL     1      65.951  55.726  26.919  0.00  0.00    -0.033 A 
ATOM     28  C   UNL     1      65.651  54.521  26.163  0.00  0.00    +0.005 A 
ATOM     29  C   UNL     1      66.429  54.139  25.047  0.00  0.00    +0.013 A 
BRANCH  18  19
ATOM     19  C   UNL     1      65.061  56.049  28.134  0.00  0.00    +0.119 C 
BRANCH  19  20
ATOM     20  N   UNL     1      63.689  56.569  27.858  0.00  0.00    -0.302 NA
ATOM     21  C   UNL     1      62.673  55.439  27.673  0.00  0.00    +0.066 C 
ATOM     22  C   UNL     1      61.238  56.001  27.407  0.00  0.00    -0.064 C 
ATOM     23  N   UNL     1      61.269  56.909  26.176  0.00  0.00    +0.379 N 
ATOM     24  C   UNL     1      59.911  57.393  25.889  0.00  0.00    -0.096 C 
ATOM     25  H   UNL     1      61.599  56.290  25.308  0.00  0.00    -0.082 HD
ATOM     26  C   UNL     1      62.279  58.034  26.350  0.00  0.00    -0.064 C 
ATOM     27  C   UNL     1      63.696  57.464  26.643  0.00  0.00    +0.066 C 
ENDBRANCH  19  20
ENDBRANCH  18  19
ENDBRANCH  14  15
ENDBRANCH  12  13
TORSDOF 6
ENDMDL
MODEL 5
REMARK VINA RESULT:      -7.9      1.526      2.357
REMARK  Name = C:\Users\Docking\Desktop\test protocol\1iep_ligandH.pdb
REMARK  8 active torsions:
REMARK  status: ('A' for Active; 'I' for Inactive)
REMARK    1  A    between atoms: _5  and  _11
REMARK    2  A    between atoms: _19  and  _21
REMARK    3  A    between atoms: _22  and  _66
REMARK    4  A    between atoms: _27  and  _30
REMARK    5  A    between atoms: _32  and  _33
REMARK    6  A    between atoms: _38  and  _43
REMARK    7  A    between atoms: _43  and  _46
REMARK    8  A    between atoms: _53  and  _55
REMARK                            x       y       z     vdW  Elec       q    Type
REMARK                         _______ _______ _______ _____ _____    ______ ____
ROOT
ATOM     10  C   UNL     1      68.807  53.687  17.392  0.00  0.00    +0.038 A 
ATOM     11  C   UNL     1      69.419  54.851  16.860  0.00  0.00    +0.047 A 
ATOM     12  C   UNL     1      69.473  56.088  17.624  0.00  0.00    +0.035 A 
ATOM     32  C   UNL     1      68.896  56.103  18.928  0.00  0.00    +0.024 A 
ATOM     33  C   UNL     1      68.270  54.929  19.483  0.00  0.00    +0.007 A 
ATOM     34  C   UNL     1      68.211  53.707  18.733  0.00  0.00    -0.029 A 
ATOM     35  C   UNL     1      67.522  52.481  19.376  0.00  0.00    +0.045 C 
ENDROOT
BRANCH  10   9
ATOM      4  C   UNL     1      67.201  51.117  13.670  0.00  0.00    +0.077 A 
ATOM      5  C   UNL     1      66.314  52.165  13.253  0.00  0.00    +0.048 A 
ATOM      6  C   UNL     1      66.296  53.346  14.028  0.00  0.00    +0.116 A 
ATOM      7  N   UNL     1      67.109  53.460  15.135  0.00  0.00    -0.223 NA
ATOM      8  C   UNL     1      67.952  52.430  15.510  0.00  0.00    +0.220 A 
ATOM      9  N   UNL     1      68.784  52.526  16.615  0.00  0.00    -0.283 N 
ATOM     36  H   UNL     1      69.385  51.741  16.863  0.00  0.00    +0.155 HD
ATOM     37  N   UNL     1      67.986  51.291  14.788  0.00  0.00    -0.214 NA
BRANCH   4   3
ATOM      1  C   UNL     1      68.546  47.657  12.435  0.00  0.00    +0.020 A 
ATOM      2  C   UNL     1      68.464  48.909  13.153  0.00  0.00    +0.013 A 
ATOM      3  C   UNL     1      67.336  49.810  12.953  0.00  0.00    +0.019 A 
ATOM     38  C   UNL     1      66.300  49.411  12.012  0.00  0.00    +0.120 A 
ATOM     39  N   UNL     1      66.406  48.201  11.334  0.00  0.00    -0.263 NA
ATOM     40  C   UNL     1      67.488  47.327  11.518  0.00  0.00    +0.111 A 
ENDBRANCH   4   3
ENDBRANCH  10   9
BRANCH  12  13
ATOM     13  N   UNL     1      70.073  57.304  17.133  0.00  0.00    -0.281 N 
ATOM     14  C   UNL     1      71.393  57.516  16.771  0.00  0.00    +0.248 C 
ATOM     30  O   UNL     1      72.309  56.746  17.017  0.00  0.00    -0.270 OA
ATOM     31  H   UNL     1      69.449  58.106  17.043  0.00  0.00    +0.155 HD
BRANCH  14  15
ATOM     15  C   UNL     1      71.749  58.771  16.042  0.00  0.00    +0.037 A 
ATOM     16  C   UNL     1      71.020  60.020  16.278  0.00  0.00    +0.013 A 
ATOM     17  C   UNL     1      71.373  61.212  15.550  0.00  0.00    +0.005 A 
ATOM     18  C   UNL     1      72.462  61.162  14.577  0.00  0.00    -0.033 A 
ATOM     28  C   UNL     1      73.172  59.911  14.366  0.00  0.00    +0.005 A 
ATOM     29  C   UNL     1      72.828  58.740  15.078  0.00  0.00    +0.013 A 
BRANCH  18  19
ATOM     19  C   UNL     1      72.892  62.380  13.739  0.00  0.00    +0.119 C 
BRANCH  19  20
ATOM     20  N   UNL     1      73.130  63.662  14.468  0.00  0.00    -0.302 NA
ATOM     21  C   UNL     1      71.933  64.611  14.367  0.00  0.00    +0.066 C 
ATOM     22  C   UNL     1      72.190  65.937  15.154  0.00  0.00    -0.064 C 
ATOM     23  N   UNL     1      73.458  66.606  14.620  0.00  0.00    +0.379 N 
ATOM     24  C   UNL     1      73.670  67.882  15.318  0.00  0.00    -0.096 C 
ATOM     25  H   UNL     1      73.291  66.834  13.541  0.00  0.00    -0.082 HD
ATOM     26  C   UNL     1      74.653  65.668  14.714  0.00  0.00    -0.064 C 
ATOM     27  C   UNL     1      74.376  64.341  13.954  0.00  0.00    +0.066 C 
ENDBRANCH  19  20
ENDBRANCH  18  19
ENDBRANCH  14  15
ENDBRANCH  12  13
TORSDOF 6
ENDMDL
