MODEL 1
REMARK VINA RESULT:      -8.2      0.000      0.000
REMARK  Name = C:\Users\Docking\Desktop\test protocol\1iep_ligandH.pdb
REMARK  8 active torsions:
REMARK  status: ('A' for Active; 'I' for Inactive)
REMARK    1  A    between atoms: _5  and  _11
REMARK    2  A    between atoms: _19  and  _21
REMARK    3  A    between atoms: _22  and  _66
REMARK    4  A    between atoms: _27  and  _30
REMARK    5  A    between atoms: _32  and  _33
REMARK    6  A    between atoms: _38  and  _43
REMARK    7  A    between atoms: _43  and  _46
REMARK    8  A    between atoms: _53  and  _55
REMARK                            x       y       z     vdW  Elec       q    Type
REMARK                         _______ _______ _______ _____ _____    ______ ____
ROOT
ATOM     10  C   UNL     1      68.514  54.001  17.566  0.00  0.00    +0.038 A 
ATOM     11  C   UNL     1      69.095  55.185  17.045  0.00  0.00    +0.047 A 
ATOM     12  C   UNL     1      69.060  56.433  17.793  0.00  0.00    +0.035 A 
ATOM     32  C   UNL     1      68.427  56.437  19.070  0.00  0.00    +0.024 A 
ATOM     33  C   UNL     1      67.832  55.242  19.615  0.00  0.00    +0.007 A 
ATOM     34  C   UNL     1      67.861  54.009  18.881  0.00  0.00    -0.029 A 
ATOM     35  C   UNL     1      67.201  52.761  19.511  0.00  0.00    +0.045 C 
ENDROOT
BRANCH  10   9
ATOM      4  C   UNL     1      67.136  51.286  13.856  0.00  0.00    +0.077 A 
ATOM      5  C   UNL     1      66.192  52.270  13.410  0.00  0.00    +0.048 A 
ATOM      6  C   UNL     1      66.087  53.458  14.168  0.00  0.00    +0.116 A 
ATOM      7  N   UNL     1      66.872  53.638  15.286  0.00  0.00    -0.223 NA
ATOM      8  C   UNL     1      67.772  52.668  15.689  0.00  0.00    +0.220 A 
ATOM      9  N   UNL     1      68.577  52.831  16.805  0.00  0.00    -0.283 N 
ATOM     36  H   UNL     1      69.223  52.089  17.074  0.00  0.00    +0.155 HD
ATOM     37  N   UNL     1      67.890  51.524  14.983  0.00  0.00    -0.214 NA
BRANCH   4   3
ATOM      1  C   UNL     1      66.703  48.165  11.537  0.00  0.00    +0.020 A 
ATOM      2  C   UNL     1      66.434  49.430  12.182  0.00  0.00    +0.013 A 
ATOM      3  C   UNL     1      67.365  49.981  13.159  0.00  0.00    +0.019 A 
ATOM     38  C   UNL     1      68.569  49.221  13.462  0.00  0.00    +0.120 A 
ATOM     39  N   UNL     1      68.800  48.006  12.827  0.00  0.00    -0.263 NA
ATOM     40  C   UNL     1      67.910  47.465  11.887  0.00  0.00    +0.111 A 
ENDBRANCH   4   3
ENDBRANCH  10   9
BRANCH  12  13
ATOM     13  N   UNL     1      69.625  57.669  17.311  0.00  0.00    -0.281 N 
ATOM     14  C   UNL     1      70.906  57.890  16.834  0.00  0.00    +0.248 C 
ATOM     30  O   UNL     1      71.833  57.102  16.950  0.00  0.00    -0.270 OA
ATOM     31  H   UNL     1      69.004  58.478  17.323  0.00  0.00    +0.155 HD
BRANCH  14  15
ATOM     15  C   UNL     1      71.206  59.180  16.142  0.00  0.00    +0.037 A 
ATOM     16  C   UNL     1      72.089  59.228  14.973  0.00  0.00    +0.013 A 
ATOM     17  C   UNL     1      72.374  60.488  14.334  0.00  0.00    +0.005 A 
ATOM     18  C   UNL     1      71.775  61.712  14.862  0.00  0.00    -0.033 A 
ATOM     28  C   UNL     1      70.899  61.634  16.019  0.00  0.00    +0.005 A 
ATOM     29  C   UNL     1      70.617  60.401  16.649  0.00  0.00    +0.013 A 
BRANCH  18  19
ATOM     19  C   UNL     1      72.041  63.102  14.257  0.00  0.00    +0.119 C 
BRANCH  19  20
ATOM     20  N   UNL     1      72.292  63.171  12.786  0.00  0.00    -0.302 NA
ATOM     21  C   UNL     1      72.849  64.533  12.361  0.00  0.00    +0.066 C 
ATOM     22  C   UNL     1      73.126  64.580  10.823  0.00  0.00    -0.064 C 
ATOM     23  N   UNL     1      71.836  64.262  10.065  0.00  0.00    +0.379 N 
ATOM     24  C   UNL     1      72.079  64.362   8.619  0.00  0.00    -0.096 C 
ATOM     25  H   UNL     1      71.084  65.039  10.337  0.00  0.00    -0.082 HD
ATOM     26  C   UNL     1      71.274  62.911  10.484  0.00  0.00    -0.064 C 
ATOM     27  C   UNL     1      71.030  62.865  12.018  0.00  0.00    +0.066 C 
ENDBRANCH  19  20
ENDBRANCH  18  19
ENDBRANCH  14  15
ENDBRANCH  12  13
TORSDOF 6
ENDMDL
MODEL 2
REMARK VINA RESULT:      -8.0      5.896     10.739
REMARK  Name = C:\Users\Docking\Desktop\test protocol\1iep_ligandH.pdb
REMARK  8 active torsions:
REMARK  status: ('A' for Active; 'I' for Inactive)
REMARK    1  A    between atoms: _5  and  _11
REMARK    2  A    between atoms: _19  and  _21
REMARK    3  A    between atoms: _22  and  _66
REMARK    4  A    between atoms: _27  and  _30
REMARK    5  A    between atoms: _32  and  _33
REMARK    6  A    between atoms: _38  and  _43
REMARK    7  A    between atoms: _43  and  _46
REMARK    8  A    between atoms: _53  and  _55
REMARK                            x       y       z     vdW  Elec       q    Type
REMARK                         _______ _______ _______ _____ _____    ______ ____
ROOT
ATOM     10  C   UNL     1      69.343  54.044  18.496  0.00  0.00    +0.038 A 
ATOM     11  C   UNL     1      68.545  54.147  19.664  0.00  0.00    +0.047 A 
ATOM     12  C   UNL     1      68.816  55.158  20.674  0.00  0.00    +0.035 A 
ATOM     32  C   UNL     1      69.907  56.051  20.460  0.00  0.00    +0.024 A 
ATOM     33  C   UNL     1      70.729  55.960  19.279  0.00  0.00    +0.007 A 
ATOM     34  C   UNL     1      70.468  54.962  18.281  0.00  0.00    -0.029 A 
ATOM     35  C   UNL     1      71.386  54.906  17.038  0.00  0.00    +0.045 C 
ENDROOT
BRANCH  10   9
ATOM      4  C   UNL     1      67.029  52.477  14.594  0.00  0.00    +0.077 A 
ATOM      5  C   UNL     1      66.349  53.729  14.423  0.00  0.00    +0.048 A 
ATOM      6  C   UNL     1      66.617  54.747  15.364  0.00  0.00    +0.116 A 
ATOM      7  N   UNL     1      67.502  54.520  16.396  0.00  0.00    -0.223 NA
ATOM      8  C   UNL     1      68.139  53.301  16.534  0.00  0.00    +0.220 A 
ATOM      9  N   UNL     1      69.039  53.053  17.559  0.00  0.00    -0.283 N 
ATOM     36  H   UNL     1      69.482  52.138  17.631  0.00  0.00    +0.155 HD
ATOM     37  N   UNL     1      67.899  52.312  15.648  0.00  0.00    -0.214 NA
BRANCH   4   3
ATOM      1  C   UNL     1      67.587  49.094  12.711  0.00  0.00    +0.020 A 
ATOM      2  C   UNL     1      67.804  50.203  13.612  0.00  0.00    +0.013 A 
ATOM      3  C   UNL     1      66.853  51.305  13.679  0.00  0.00    +0.019 A 
ATOM     38  C   UNL     1      65.682  51.254  12.816  0.00  0.00    +0.120 A 
ATOM     39  N   UNL     1      65.500  50.174  11.958  0.00  0.00    -0.263 NA
ATOM     40  C   UNL     1      66.410  49.109  11.883  0.00  0.00    +0.111 A 
ENDBRANCH   4   3
ENDBRANCH  10   9
BRANCH  12  13
ATOM     13  N   UNL     1      68.045  55.306  21.883  0.00  0.00    -0.281 N 
ATOM     14  C   UNL     1      68.193  54.619  23.077  0.00  0.00    +0.248 C 
ATOM     30  O   UNL     1      68.878  53.616  23.216  0.00  0.00    -0.270 OA
ATOM     31  H   UNL     1      67.299  56.001  21.856  0.00  0.00    +0.155 HD
BRANCH  14  15
ATOM     15  C   UNL     1      67.464  55.107  24.286  0.00  0.00    +0.037 A 
ATOM     16  C   UNL     1      67.835  56.364  24.942  0.00  0.00    +0.013 A 
ATOM     17  C   UNL     1      67.126  56.803  26.117  0.00  0.00    +0.005 A 
ATOM     18  C   UNL     1      66.037  55.985  26.645  0.00  0.00    -0.033 A 
ATOM     28  C   UNL     1      65.686  54.745  25.972  0.00  0.00    +0.005 A 
ATOM     29  C   UNL     1      66.379  54.310  24.820  0.00  0.00    +0.013 A 
BRANCH  18  19
ATOM     19  C   UNL     1      65.240  56.366  27.906  0.00  0.00    +0.119 C 
BRANCH  19  20
ATOM     20  N   UNL     1      63.825  56.802  27.715  0.00  0.00    -0.302 NA
ATOM     21  C   UNL     1      62.853  55.619  27.714  0.00  0.00    +0.066 C 
ATOM     22  C   UNL     1      61.375  56.096  27.535  0.00  0.00    -0.064 C 
ATOM     23  N   UNL     1      61.254  56.897  26.238  0.00  0.00    +0.379 N 
ATOM     24  C   UNL     1      59.853  57.298  26.038  0.00  0.00    -0.096 C 
ATOM     25  H   UNL     1      61.537  56.223  25.396  0.00  0.00    -0.082 HD
ATOM     26  C   UNL     1      62.218  58.075  26.230  0.00  0.00    -0.064 C 
ATOM     27  C   UNL     1      63.681  57.593  26.438  0.00  0.00    +0.066 C 
ENDBRANCH  19  20
ENDBRANCH  18  19
ENDBRANCH  14  15
ENDBRANCH  12  13
TORSDOF 6
ENDMDL
MODEL 3
REMARK VINA RESULT:      -8.0      0.891      1.398
REMARK  Name = C:\Users\Docking\Desktop\test protocol\1iep_ligandH.pdb
REMARK  8 active torsions:
REMARK  status: ('A' for Active; 'I' for Inactive)
REMARK    1  A    between atoms: _5  and  _11
REMARK    2  A    between atoms: _19  and  _21
REMARK    3  A    between atoms: _22  and  _66
REMARK    4  A    between atoms: _27  and  _30
REMARK    5  A    between atoms: _32  and  _33
REMARK    6  A    between atoms: _38  and  _43
REMARK    7  A    between atoms: _43  and  _46
REMARK    8  A    between atoms: _53  and  _55
REMARK                            x       y       z     vdW  Elec       q    Type
REMARK                         _______ _______ _______ _____ _____    ______ ____
ROOT
ATOM     10  C   UNL     1      68.329  54.751  17.887  0.00  0.00    +0.038 A 
ATOM     11  C   UNL     1      68.932  55.930  17.378  0.00  0.00    +0.047 A 
ATOM     12  C   UNL     1      68.827  57.196  18.087  0.00  0.00    +0.035 A 
ATOM     32  C   UNL     1      68.102  57.225  19.314  0.00  0.00    +0.024 A 
ATOM     33  C   UNL     1      67.482  56.037  19.845  0.00  0.00    +0.007 A 
ATOM     34  C   UNL     1      67.580  54.786  19.149  0.00  0.00    -0.029 A 
ATOM     35  C   UNL     1      66.890  53.545  19.763  0.00  0.00    +0.045 C 
ENDROOT
BRANCH  10   9
ATOM      4  C   UNL     1      67.103  51.830  14.282  0.00  0.00    +0.077 A 
ATOM      5  C   UNL     1      66.095  52.736  13.812  0.00  0.00    +0.048 A 
ATOM      6  C   UNL     1      65.919  53.940  14.531  0.00  0.00    +0.116 A 
ATOM      7  N   UNL     1      66.698  54.207  15.635  0.00  0.00    -0.223 NA
ATOM      8  C   UNL     1      67.661  53.311  16.062  0.00  0.00    +0.220 A 
ATOM      9  N   UNL     1      68.461  53.563  17.165  0.00  0.00    -0.283 N 
ATOM     36  H   UNL     1      69.155  52.873  17.453  0.00  0.00    +0.155 HD
ATOM     37  N   UNL     1      67.847  52.154  15.394  0.00  0.00    -0.214 NA
BRANCH   4   3
ATOM      1  C   UNL     1      68.739  48.386  13.409  0.00  0.00    +0.020 A 
ATOM      2  C   UNL     1      68.484  49.642  14.076  0.00  0.00    +0.013 A 
ATOM      3  C   UNL     1      67.410  50.520  13.627  0.00  0.00    +0.019 A 
ATOM     38  C   UNL     1      66.607  50.093  12.491  0.00  0.00    +0.120 A 
ATOM     39  N   UNL     1      66.877  48.879  11.867  0.00  0.00    -0.263 NA
ATOM     40  C   UNL     1      67.908  48.027  12.290  0.00  0.00    +0.111 A 
ENDBRANCH   4   3
ENDBRANCH  10   9
BRANCH  12  13
ATOM     13  N   UNL     1      69.412  58.426  17.614  0.00  0.00    -0.281 N 
ATOM     14  C   UNL     1      70.744  58.685  17.337  0.00  0.00    +0.248 C 
ATOM     30  O   UNL     1      71.671  57.956  17.659  0.00  0.00    -0.270 OA
ATOM     31  H   UNL     1      68.765  59.201  17.466  0.00  0.00    +0.155 HD
BRANCH  14  15
ATOM     15  C   UNL     1      71.100  59.941  16.610  0.00  0.00    +0.037 A 
ATOM     16  C   UNL     1      70.943  61.254  17.240  0.00  0.00    +0.013 A 
ATOM     17  C   UNL     1      71.277  62.452  16.511  0.00  0.00    +0.005 A 
ATOM     18  C   UNL     1      71.774  62.340  15.141  0.00  0.00    -0.033 A 
ATOM     28  C   UNL     1      71.925  61.025  14.542  0.00  0.00    +0.005 A 
ATOM     29  C   UNL     1      71.597  59.849  15.254  0.00  0.00    +0.013 A 
BRANCH  18  19
ATOM     19  C   UNL     1      72.135  63.565  14.280  0.00  0.00    +0.119 C 
BRANCH  19  20
ATOM     20  N   UNL     1      72.426  63.324  12.836  0.00  0.00    -0.302 NA
ATOM     21  C   UNL     1      73.622  64.144  12.346  0.00  0.00    +0.066 C 
ATOM     22  C   UNL     1      73.926  63.863  10.838  0.00  0.00    -0.064 C 
ATOM     23  N   UNL     1      72.681  64.170  10.004  0.00  0.00    +0.379 N 
ATOM     24  C   UNL     1      72.982  63.962   8.580  0.00  0.00    -0.096 C 
ATOM     25  H   UNL     1      72.438  65.249  10.144  0.00  0.00    -0.082 HD
ATOM     26  C   UNL     1      71.486  63.361  10.486  0.00  0.00    -0.064 C 
ATOM     27  C   UNL     1      71.211  63.625  11.993  0.00  0.00    +0.066 C 
ENDBRANCH  19  20
ENDBRANCH  18  19
ENDBRANCH  14  15
ENDBRANCH  12  13
TORSDOF 6
ENDMDL
MODEL 4
REMARK VINA RESULT:      -7.8      2.891      4.552
REMARK  Name = C:\Users\Docking\Desktop\test protocol\1iep_ligandH.pdb
REMARK  8 active torsions:
REMARK  status: ('A' for Active; 'I' for Inactive)
REMARK    1  A    between atoms: _5  and  _11
REMARK    2  A    between atoms: _19  and  _21
REMARK    3  A    between atoms: _22  and  _66
REMARK    4  A    between atoms: _27  and  _30
REMARK    5  A    between atoms: _32  and  _33
REMARK    6  A    between atoms: _38  and  _43
REMARK    7  A    between atoms: _43  and  _46
REMARK    8  A    between atoms: _53  and  _55
REMARK                            x       y       z     vdW  Elec       q    Type
REMARK                         _______ _______ _______ _____ _____    ______ ____
ROOT
ATOM     10  C   UNL     1      71.846  55.756  14.763  0.00  0.00    +0.038 A 
ATOM     11  C   UNL     1      71.729  57.028  14.147  0.00  0.00    +0.047 A 
ATOM     12  C   UNL     1      72.436  58.186  14.672  0.00  0.00    +0.035 A 
ATOM     32  C   UNL     1      73.256  58.012  15.824  0.00  0.00    +0.024 A 
ATOM     33  C   UNL     1      73.386  56.726  16.463  0.00  0.00    +0.007 A 
ATOM     34  C   UNL     1      72.689  55.581  15.952  0.00  0.00    -0.029 A 
ATOM     35  C   UNL     1      72.860  54.228  16.682  0.00  0.00    +0.045 C 
ENDROOT
BRANCH  10   9
ATOM      4  C   UNL     1      67.849  53.161  14.190  0.00  0.00    +0.077 A 
ATOM      5  C   UNL     1      67.102  54.008  15.074  0.00  0.00    +0.048 A 
ATOM      6  C   UNL     1      67.784  55.097  15.661  0.00  0.00    +0.116 A 
ATOM      7  N   UNL     1      69.116  55.313  15.378  0.00  0.00    -0.223 NA
ATOM      8  C   UNL     1      69.808  54.476  14.523  0.00  0.00    +0.220 A 
ATOM      9  N   UNL     1      71.145  54.678  14.218  0.00  0.00    -0.283 N 
ATOM     36  H   UNL     1      71.622  54.034  13.588  0.00  0.00    +0.155 HD
ATOM     37  N   UNL     1      69.179  53.428  13.950  0.00  0.00    -0.214 NA
BRANCH   4   3
ATOM      1  C   UNL     1      67.447  49.686  12.441  0.00  0.00    +0.020 A 
ATOM      2  C   UNL     1      68.059  50.808  13.115  0.00  0.00    +0.013 A 
ATOM      3  C   UNL     1      67.267  51.972  13.491  0.00  0.00    +0.019 A 
ATOM     38  C   UNL     1      65.848  51.969  13.168  0.00  0.00    +0.120 A 
ATOM     39  N   UNL     1      65.287  50.875  12.517  0.00  0.00    -0.263 NA
ATOM     40  C   UNL     1      66.039  49.750  12.149  0.00  0.00    +0.111 A 
ENDBRANCH   4   3
ENDBRANCH  10   9
BRANCH  12  13
ATOM     13  N   UNL     1      72.349  59.504  14.093  0.00  0.00    -0.281 N 
ATOM     14  C   UNL     1      71.675  60.609  14.589  0.00  0.00    +0.248 C 
ATOM     30  O   UNL     1      70.864  60.571  15.502  0.00  0.00    -0.270 OA
ATOM     31  H   UNL     1      72.844  59.640  13.212  0.00  0.00    +0.155 HD
BRANCH  14  15
ATOM     15  C   UNL     1      71.929  61.946  13.971  0.00  0.00    +0.037 A 
ATOM     16  C   UNL     1      70.825  62.845  13.626  0.00  0.00    +0.013 A 
ATOM     17  C   UNL     1      71.096  64.123  13.016  0.00  0.00    +0.005 A 
ATOM     18  C   UNL     1      72.480  64.509  12.748  0.00  0.00    -0.033 A 
ATOM     28  C   UNL     1      73.556  63.600  13.105  0.00  0.00    +0.005 A 
ATOM     29  C   UNL     1      73.293  62.346  13.703  0.00  0.00    +0.013 A 
BRANCH  18  19
ATOM     19  C   UNL     1      72.861  65.843  12.080  0.00  0.00    +0.119 C 
BRANCH  19  20
ATOM     20  N   UNL     1      73.515  66.875  12.939  0.00  0.00    -0.302 NA
ATOM     21  C   UNL     1      74.999  66.575  13.168  0.00  0.00    +0.066 C 
ATOM     22  C   UNL     1      75.673  67.676  14.050  0.00  0.00    -0.064 C 
ATOM     23  N   UNL     1      74.930  67.784  15.383  0.00  0.00    +0.379 N 
ATOM     24  C   UNL     1      75.596  68.778  16.237  0.00  0.00    -0.096 C 
ATOM     25  H   UNL     1      75.004  66.795  15.892  0.00  0.00    -0.082 HD
ATOM     26  C   UNL     1      73.453  68.080  15.164  0.00  0.00    -0.064 C 
ATOM     27  C   UNL     1      72.800  66.995  14.262  0.00  0.00    +0.066 C 
ENDBRANCH  19  20
ENDBRANCH  18  19
ENDBRANCH  14  15
ENDBRANCH  12  13
TORSDOF 6
ENDMDL
MODEL 5
REMARK VINA RESULT:      -7.7      2.235     12.328
REMARK  Name = C:\Users\Docking\Desktop\test protocol\1iep_ligandH.pdb
REMARK  8 active torsions:
REMARK  status: ('A' for Active; 'I' for Inactive)
REMARK    1  A    between atoms: _5  and  _11
REMARK    2  A    between atoms: _19  and  _21
REMARK    3  A    between atoms: _22  and  _66
REMARK    4  A    between atoms: _27  and  _30
REMARK    5  A    between atoms: _32  and  _33
REMARK    6  A    between atoms: _38  and  _43
REMARK    7  A    between atoms: _43  and  _46
REMARK    8  A    between atoms: _53  and  _55
REMARK                            x       y       z     vdW  Elec       q    Type
REMARK                         _______ _______ _______ _____ _____    ______ ____
ROOT
ATOM     10  C   UNL     1      71.938  63.748  13.098  0.00  0.00    +0.038 A 
ATOM     11  C   UNL     1      71.510  62.469  13.538  0.00  0.00    +0.047 A 
ATOM     12  C   UNL     1      72.103  61.839  14.707  0.00  0.00    +0.035 A 
ATOM     32  C   UNL     1      73.129  62.540  15.405  0.00  0.00    +0.024 A 
ATOM     33  C   UNL     1      73.577  63.839  14.971  0.00  0.00    +0.007 A 
ATOM     34  C   UNL     1      72.997  64.465  13.817  0.00  0.00    -0.029 A 
ATOM     35  C   UNL     1      73.522  65.857  13.393  0.00  0.00    +0.045 C 
ENDROOT
BRANCH  10   9
ATOM      4  C   UNL     1      71.782  64.641   8.384  0.00  0.00    +0.077 A 
ATOM      5  C   UNL     1      73.023  63.959   8.154  0.00  0.00    +0.048 A 
ATOM      6  C   UNL     1      73.674  63.399   9.276  0.00  0.00    +0.116 A 
ATOM      7  N   UNL     1      73.115  63.517  10.531  0.00  0.00    -0.223 NA
ATOM      8  C   UNL     1      71.918  64.182  10.718  0.00  0.00    +0.220 A 
ATOM      9  N   UNL     1      71.334  64.306  11.969  0.00  0.00    -0.283 N 
ATOM     36  H   UNL     1      70.453  64.811  12.067  0.00  0.00    +0.155 HD
ATOM     37  N   UNL     1      71.277  64.727   9.663  0.00  0.00    -0.214 NA
BRANCH   4   3
ATOM      1  C   UNL     1      70.695  66.877   5.365  0.00  0.00    +0.020 A 
ATOM      2  C   UNL     1      71.517  66.289   6.397  0.00  0.00    +0.013 A 
ATOM      3  C   UNL     1      70.974  65.282   7.299  0.00  0.00    +0.019 A 
ATOM     38  C   UNL     1      69.584  64.888   7.129  0.00  0.00    +0.120 A 
ATOM     39  N   UNL     1      68.815  65.473   6.128  0.00  0.00    -0.263 NA
ATOM     40  C   UNL     1      69.326  66.444   5.254  0.00  0.00    +0.111 A 
ENDBRANCH   4   3
ENDBRANCH  10   9
BRANCH  12  13
ATOM     13  N   UNL     1      71.715  60.539  15.197  0.00  0.00    -0.281 N 
ATOM     14  C   UNL     1      70.886  60.245  16.268  0.00  0.00    +0.248 C 
ATOM     30  O   UNL     1      70.522  61.059  17.103  0.00  0.00    -0.270 OA
ATOM     31  H   UNL     1      72.097  59.739  14.693  0.00  0.00    +0.155 HD
BRANCH  14  15
ATOM     15  C   UNL     1      70.405  58.841  16.444  0.00  0.00    +0.037 A 
ATOM     16  C   UNL     1      70.931  57.749  15.623  0.00  0.00    +0.013 A 
ATOM     17  C   UNL     1      70.437  56.406  15.801  0.00  0.00    +0.005 A 
ATOM     18  C   UNL     1      69.410  56.150  16.808  0.00  0.00    -0.033 A 
ATOM     28  C   UNL     1      68.909  57.251  17.612  0.00  0.00    +0.005 A 
ATOM     29  C   UNL     1      69.390  58.568  17.439  0.00  0.00    +0.013 A 
BRANCH  18  19
ATOM     19  C   UNL     1      68.809  54.753  17.052  0.00  0.00    +0.119 C 
BRANCH  19  20
ATOM     20  N   UNL     1      68.293  54.013  15.863  0.00  0.00    -0.302 NA
ATOM     21  C   UNL     1      66.925  54.534  15.411  0.00  0.00    +0.066 C 
ATOM     22  C   UNL     1      66.410  53.764  14.152  0.00  0.00    -0.064 C 
ATOM     23  N   UNL     1      66.343  52.268  14.464  0.00  0.00    +0.379 N 
ATOM     24  C   UNL     1      65.804  51.547  13.302  0.00  0.00    -0.096 C 
ATOM     25  H   UNL     1      65.628  52.131  15.309  0.00  0.00    -0.082 HD
ATOM     26  C   UNL     1      67.698  51.742  14.917  0.00  0.00    -0.064 C 
ATOM     27  C   UNL     1      68.214  52.533  16.151  0.00  0.00    +0.066 C 
ENDBRANCH  19  20
ENDBRANCH  18  19
ENDBRANCH  14  15
ENDBRANCH  12  13
TORSDOF 6
ENDMDL
