MODEL 1
REMARK VINA RESULT:      -8.9      0.000      0.000
REMARK  Name = C:\Users\Docking\Desktop\test protocol\1iep_ligandH.pdb
REMARK  8 active torsions:
REMARK  status: ('A' for Active; 'I' for Inactive)
REMARK    1  A    between atoms: _5  and  _11
REMARK    2  A    between atoms: _19  and  _21
REMARK    3  A    between atoms: _22  and  _66
REMARK    4  A    between atoms: _27  and  _30
REMARK    5  A    between atoms: _32  and  _33
REMARK    6  A    between atoms: _38  and  _43
REMARK    7  A    between atoms: _43  and  _46
REMARK    8  A    between atoms: _53  and  _55
REMARK                            x       y       z     vdW  Elec       q    Type
REMARK                         _______ _______ _______ _____ _____    ______ ____
ROOT
ATOM     10  C   UNL     1       9.166  17.764  60.945  0.00  0.00    +0.038 A 
ATOM     11  C   UNL     1       7.784  17.449  60.970  0.00  0.00    +0.047 A 
ATOM     12  C   UNL     1       7.327  16.068  60.973  0.00  0.00    +0.035 A 
ATOM     32  C   UNL     1       8.306  15.032  60.953  0.00  0.00    +0.024 A 
ATOM     33  C   UNL     1       9.715  15.335  60.927  0.00  0.00    +0.007 A 
ATOM     34  C   UNL     1      10.172  16.695  60.921  0.00  0.00    -0.029 A 
ATOM     35  C   UNL     1      11.695  16.961  60.886  0.00  0.00    +0.045 C 
ENDROOT
BRANCH  10   9
ATOM      4  C   UNL     1      10.652  21.739  58.702  0.00  0.00    +0.077 A 
ATOM      5  C   UNL     1      10.696  21.076  57.431  0.00  0.00    +0.048 A 
ATOM      6  C   UNL     1      10.335  19.710  57.398  0.00  0.00    +0.116 A 
ATOM      7  N   UNL     1       9.960  19.066  58.557  0.00  0.00    -0.223 NA
ATOM      8  C   UNL     1       9.930  19.734  59.767  0.00  0.00    +0.220 A 
ATOM      9  N   UNL     1       9.549  19.107  60.944  0.00  0.00    -0.283 N 
ATOM     36  H   UNL     1       9.547  19.633  61.817  0.00  0.00    +0.155 HD
ATOM     37  N   UNL     1      10.272  21.038  59.825  0.00  0.00    -0.214 NA
BRANCH   4   3
ATOM      1  C   UNL     1      12.426  25.026  59.864  0.00  0.00    +0.020 A 
ATOM      2  C   UNL     1      12.132  23.620  59.708  0.00  0.00    +0.013 A 
ATOM      3  C   UNL     1      11.001  23.181  58.899  0.00  0.00    +0.019 A 
ATOM     38  C   UNL     1      10.183  24.199  58.256  0.00  0.00    +0.120 A 
ATOM     39  N   UNL     1      10.490  25.545  58.427  0.00  0.00    -0.263 NA
ATOM     40  C   UNL     1      11.574  25.979  59.204  0.00  0.00    +0.111 A 
ENDBRANCH   4   3
ENDBRANCH  10   9
BRANCH  12  13
ATOM     13  N   UNL     1       5.936  15.687  60.990  0.00  0.00    -0.281 N 
ATOM     14  C   UNL     1       5.022  15.843  62.019  0.00  0.00    +0.248 C 
ATOM     30  O   UNL     1       5.318  16.144  63.166  0.00  0.00    -0.270 OA
ATOM     31  H   UNL     1       5.583  15.248  60.139  0.00  0.00    +0.155 HD
BRANCH  14  15
ATOM     15  C   UNL     1       3.572  15.621  61.737  0.00  0.00    +0.037 A 
ATOM     16  C   UNL     1       2.553  16.562  62.207  0.00  0.00    +0.013 A 
ATOM     17  C   UNL     1       1.159  16.315  61.936  0.00  0.00    +0.005 A 
ATOM     18  C   UNL     1       0.776  15.120  61.188  0.00  0.00    -0.033 A 
ATOM     28  C   UNL     1       1.808  14.205  60.728  0.00  0.00    +0.005 A 
ATOM     29  C   UNL     1       3.175  14.444  60.993  0.00  0.00    +0.013 A 
BRANCH  18  19
ATOM     19  C   UNL     1      -0.689  14.765  60.871  0.00  0.00    +0.119 C 
BRANCH  19  20
ATOM     20  N   UNL     1      -1.049  14.564  59.435  0.00  0.00    -0.302 NA
ATOM     21  C   UNL     1      -2.004  15.647  58.926  0.00  0.00    +0.066 C 
ATOM     22  C   UNL     1      -2.352  15.435  57.416  0.00  0.00    -0.064 C 
ATOM     23  N   UNL     1      -2.960  14.044  57.227  0.00  0.00    +0.379 N 
ATOM     24  C   UNL     1      -3.341  13.863  55.819  0.00  0.00    -0.096 C 
ATOM     25  H   UNL     1      -3.890  13.996  57.839  0.00  0.00    -0.082 HD
ATOM     26  C   UNL     1      -2.017  12.961  57.733  0.00  0.00    -0.064 C 
ATOM     27  C   UNL     1      -1.654  13.198  59.226  0.00  0.00    +0.066 C 
ENDBRANCH  19  20
ENDBRANCH  18  19
ENDBRANCH  14  15
ENDBRANCH  12  13
TORSDOF 6
ENDMDL
MODEL 2
REMARK VINA RESULT:      -8.6      7.322     13.384
REMARK  Name = C:\Users\Docking\Desktop\test protocol\1iep_ligandH.pdb
REMARK  8 active torsions:
REMARK  status: ('A' for Active; 'I' for Inactive)
REMARK    1  A    between atoms: _5  and  _11
REMARK    2  A    between atoms: _19  and  _21
REMARK    3  A    between atoms: _22  and  _66
REMARK    4  A    between atoms: _27  and  _30
REMARK    5  A    between atoms: _32  and  _33
REMARK    6  A    between atoms: _38  and  _43
REMARK    7  A    between atoms: _43  and  _46
REMARK    8  A    between atoms: _53  and  _55
REMARK                            x       y       z     vdW  Elec       q    Type
REMARK                         _______ _______ _______ _____ _____    ______ ____
ROOT
ATOM     10  C   UNL     1       9.573  21.996  60.110  0.00  0.00    +0.038 A 
ATOM     11  C   UNL     1      10.846  22.048  60.734  0.00  0.00    +0.047 A 
ATOM     12  C   UNL     1      11.639  20.844  60.925  0.00  0.00    +0.035 A 
ATOM     32  C   UNL     1      11.106  19.604  60.467  0.00  0.00    +0.024 A 
ATOM     33  C   UNL     1       9.814  19.533  59.832  0.00  0.00    +0.007 A 
ATOM     34  C   UNL     1       9.026  20.717  59.642  0.00  0.00    -0.029 A 
ATOM     35  C   UNL     1       7.644  20.581  58.961  0.00  0.00    +0.045 C 
ENDROOT
BRANCH  10   9
ATOM      4  C   UNL     1       8.475  25.989  57.682  0.00  0.00    +0.077 A 
ATOM      5  C   UNL     1       9.434  25.699  56.655  0.00  0.00    +0.048 A 
ATOM      6  C   UNL     1      10.195  24.516  56.793  0.00  0.00    +0.116 A 
ATOM      7  N   UNL     1      10.002  23.692  57.881  0.00  0.00    -0.223 NA
ATOM      8  C   UNL     1       9.070  24.002  58.854  0.00  0.00    +0.220 A 
ATOM      9  N   UNL     1       8.854  23.183  59.952  0.00  0.00    -0.283 N 
ATOM     36  H   UNL     1       8.162  23.451  60.652  0.00  0.00    +0.155 HD
ATOM     37  N   UNL     1       8.332  25.126  58.746  0.00  0.00    -0.214 NA
BRANCH   4   3
ATOM      1  C   UNL     1       7.210  29.686  57.843  0.00  0.00    +0.020 A 
ATOM      2  C   UNL     1       8.104  28.552  57.857  0.00  0.00    +0.013 A 
ATOM      3  C   UNL     1       7.594  27.199  57.676  0.00  0.00    +0.019 A 
ATOM     38  C   UNL     1       6.162  27.027  57.480  0.00  0.00    +0.120 A 
ATOM     39  N   UNL     1       5.325  28.138  57.472  0.00  0.00    -0.263 NA
ATOM     40  C   UNL     1       5.805  29.445  57.647  0.00  0.00    +0.111 A 
ENDBRANCH   4   3
ENDBRANCH  10   9
BRANCH  12  13
ATOM     13  N   UNL     1      12.934  20.833  61.559  0.00  0.00    -0.281 N 
ATOM     14  C   UNL     1      13.223  20.661  62.903  0.00  0.00    +0.248 C 
ATOM     30  O   UNL     1      12.394  20.702  63.799  0.00  0.00    -0.270 OA
ATOM     31  H   UNL     1      13.735  20.970  60.942  0.00  0.00    +0.155 HD
BRANCH  14  15
ATOM     15  C   UNL     1      14.641  20.422  63.311  0.00  0.00    +0.037 A 
ATOM     16  C   UNL     1      15.001  20.202  64.715  0.00  0.00    +0.013 A 
ATOM     17  C   UNL     1      16.378  19.991  65.084  0.00  0.00    +0.005 A 
ATOM     18  C   UNL     1      17.407  19.997  64.046  0.00  0.00    -0.033 A 
ATOM     28  C   UNL     1      17.021  20.212  62.661  0.00  0.00    +0.005 A 
ATOM     29  C   UNL     1      15.672  20.421  62.296  0.00  0.00    +0.013 A 
BRANCH  18  19
ATOM     19  C   UNL     1      18.904  19.801  64.351  0.00  0.00    +0.119 C 
BRANCH  19  20
ATOM     20  N   UNL     1      19.268  18.730  65.325  0.00  0.00    -0.302 NA
ATOM     21  C   UNL     1      20.769  18.719  65.632  0.00  0.00    +0.066 C 
ATOM     22  C   UNL     1      21.129  17.607  66.670  0.00  0.00    -0.064 C 
ATOM     23  N   UNL     1      20.676  16.247  66.134  0.00  0.00    +0.379 N 
ATOM     24  C   UNL     1      21.066  15.192  67.082  0.00  0.00    -0.096 C 
ATOM     25  H   UNL     1      21.220  16.062  65.179  0.00  0.00    -0.082 HD
ATOM     26  C   UNL     1      19.186  16.250  65.824  0.00  0.00    -0.064 C 
ATOM     27  C   UNL     1      18.834  17.378  64.814  0.00  0.00    +0.066 C 
ENDBRANCH  19  20
ENDBRANCH  18  19
ENDBRANCH  14  15
ENDBRANCH  12  13
TORSDOF 6
ENDMDL
MODEL 3
REMARK VINA RESULT:      -8.4      6.212     10.781
REMARK  Name = C:\Users\Docking\Desktop\test protocol\1iep_ligandH.pdb
REMARK  8 active torsions:
REMARK  status: ('A' for Active; 'I' for Inactive)
REMARK    1  A    between atoms: _5  and  _11
REMARK    2  A    between atoms: _19  and  _21
REMARK    3  A    between atoms: _22  and  _66
REMARK    4  A    between atoms: _27  and  _30
REMARK    5  A    between atoms: _32  and  _33
REMARK    6  A    between atoms: _38  and  _43
REMARK    7  A    between atoms: _43  and  _46
REMARK    8  A    between atoms: _53  and  _55
REMARK                            x       y       z     vdW  Elec       q    Type
REMARK                         _______ _______ _______ _____ _____    ______ ____
ROOT
ATOM     10  C   UNL     1       7.835  26.955  57.971  0.00  0.00    +0.038 A 
ATOM     11  C   UNL     1       7.768  25.573  58.284  0.00  0.00    +0.047 A 
ATOM     12  C   UNL     1       8.961  24.742  58.280  0.00  0.00    +0.035 A 
ATOM     32  C   UNL     1      10.208  25.351  57.954  0.00  0.00    +0.024 A 
ATOM     33  C   UNL     1      10.295  26.754  57.633  0.00  0.00    +0.007 A 
ATOM     34  C   UNL     1       9.120  27.578  57.633  0.00  0.00    -0.029 A 
ATOM     35  C   UNL     1       9.272  29.075  57.274  0.00  0.00    +0.045 C 
ENDROOT
BRANCH  10   9
ATOM      4  C   UNL     1       3.792  28.541  55.928  0.00  0.00    +0.077 A 
ATOM      5  C   UNL     1       4.061  27.835  54.709  0.00  0.00    +0.048 A 
ATOM      6  C   UNL     1       5.254  27.080  54.646  0.00  0.00    +0.116 A 
ATOM      7  N   UNL     1       6.107  27.042  55.727  0.00  0.00    -0.223 NA
ATOM      8  C   UNL     1       5.819  27.737  56.888  0.00  0.00    +0.220 A 
ATOM      9  N   UNL     1       6.658  27.707  57.991  0.00  0.00    -0.283 N 
ATOM     36  H   UNL     1       6.413  28.239  58.825  0.00  0.00    +0.155 HD
ATOM     37  N   UNL     1       4.686  28.466  56.973  0.00  0.00    -0.214 NA
BRANCH   4   3
ATOM      1  C   UNL     1       0.494  30.562  55.342  0.00  0.00    +0.020 A 
ATOM      2  C   UNL     1       1.660  29.751  55.075  0.00  0.00    +0.013 A 
ATOM      3  C   UNL     1       2.571  29.379  56.149  0.00  0.00    +0.019 A 
ATOM     38  C   UNL     1       2.272  29.847  57.494  0.00  0.00    +0.120 A 
ATOM     39  N   UNL     1       1.143  30.628  57.722  0.00  0.00    -0.263 NA
ATOM     40  C   UNL     1       0.259  30.993  56.695  0.00  0.00    +0.111 A 
ENDBRANCH   4   3
ENDBRANCH  10   9
BRANCH  12  13
ATOM     13  N   UNL     1       8.953  23.332  58.581  0.00  0.00    -0.281 N 
ATOM     14  C   UNL     1       9.607  22.313  57.909  0.00  0.00    +0.248 C 
ATOM     30  O   UNL     1      10.131  22.435  56.811  0.00  0.00    -0.270 OA
ATOM     31  H   UNL     1       8.396  23.050  59.389  0.00  0.00    +0.155 HD
BRANCH  14  15
ATOM     15  C   UNL     1       9.678  20.960  58.540  0.00  0.00    +0.037 A 
ATOM     16  C   UNL     1      10.704  19.990  58.146  0.00  0.00    +0.013 A 
ATOM     17  C   UNL     1      10.739  18.686  58.758  0.00  0.00    +0.005 A 
ATOM     18  C   UNL     1       9.745  18.344  59.773  0.00  0.00    -0.033 A 
ATOM     28  C   UNL     1       8.742  19.327  60.148  0.00  0.00    +0.005 A 
ATOM     29  C   UNL     1       8.703  20.606  59.549  0.00  0.00    +0.013 A 
BRANCH  18  19
ATOM     19  C   UNL     1       9.694  16.968  60.464  0.00  0.00    +0.119 C 
BRANCH  19  20
ATOM     20  N   UNL     1       8.992  16.890  61.780  0.00  0.00    -0.302 NA
ATOM     21  C   UNL     1       9.945  17.133  62.954  0.00  0.00    +0.066 C 
ATOM     22  C   UNL     1       9.190  17.070  64.321  0.00  0.00    -0.064 C 
ATOM     23  N   UNL     1       8.500  15.711  64.457  0.00  0.00    +0.379 N 
ATOM     24  C   UNL     1       7.837  15.626  65.767  0.00  0.00    -0.096 C 
ATOM     25  H   UNL     1       9.290  14.926  64.426  0.00  0.00    -0.082 HD
ATOM     26  C   UNL     1       7.553  15.460  63.292  0.00  0.00    -0.064 C 
ATOM     27  C   UNL     1       8.307  15.554  61.936  0.00  0.00    +0.066 C 
ENDBRANCH  19  20
ENDBRANCH  18  19
ENDBRANCH  14  15
ENDBRANCH  12  13
TORSDOF 6
ENDMDL
MODEL 4
REMARK VINA RESULT:      -8.3      7.484     11.874
REMARK  Name = C:\Users\Docking\Desktop\test protocol\1iep_ligandH.pdb
REMARK  8 active torsions:
REMARK  status: ('A' for Active; 'I' for Inactive)
REMARK    1  A    between atoms: _5  and  _11
REMARK    2  A    between atoms: _19  and  _21
REMARK    3  A    between atoms: _22  and  _66
REMARK    4  A    between atoms: _27  and  _30
REMARK    5  A    between atoms: _32  and  _33
REMARK    6  A    between atoms: _38  and  _43
REMARK    7  A    between atoms: _43  and  _46
REMARK    8  A    between atoms: _53  and  _55
REMARK                            x       y       z     vdW  Elec       q    Type
REMARK                         _______ _______ _______ _____ _____    ______ ____
ROOT
ATOM     10  C   UNL     1      11.394  19.408  60.613  0.00  0.00    +0.038 A 
ATOM     11  C   UNL     1      11.067  20.708  60.150  0.00  0.00    +0.047 A 
ATOM     12  C   UNL     1      10.363  20.904  58.892  0.00  0.00    +0.035 A 
ATOM     32  C   UNL     1      10.004  19.752  58.133  0.00  0.00    +0.024 A 
ATOM     33  C   UNL     1      10.329  18.423  58.588  0.00  0.00    +0.007 A 
ATOM     34  C   UNL     1      11.025  18.224  59.827  0.00  0.00    -0.029 A 
ATOM     35  C   UNL     1      11.353  16.777  60.263  0.00  0.00    +0.045 C 
ENDROOT
BRANCH  10   9
ATOM      4  C   UNL     1      11.499  18.481  65.322  0.00  0.00    +0.077 A 
ATOM      5  C   UNL     1      10.082  18.263  65.371  0.00  0.00    +0.048 A 
ATOM      6  C   UNL     1       9.361  18.406  64.164  0.00  0.00    +0.116 A 
ATOM      7  N   UNL     1      10.019  18.742  63.000  0.00  0.00    -0.223 NA
ATOM      8  C   UNL     1      11.387  18.947  62.988  0.00  0.00    +0.220 A 
ATOM      9  N   UNL     1      12.070  19.278  61.828  0.00  0.00    -0.283 N 
ATOM     36  H   UNL     1      13.078  19.428  61.862  0.00  0.00    +0.155 HD
ATOM     37  N   UNL     1      12.097  18.818  64.128  0.00  0.00    -0.214 NA
BRANCH   4   3
ATOM      1  C   UNL     1      14.675  18.282  67.597  0.00  0.00    +0.020 A 
ATOM      2  C   UNL     1      13.852  18.399  66.415  0.00  0.00    +0.013 A 
ATOM      3  C   UNL     1      12.398  18.364  66.513  0.00  0.00    +0.019 A 
ATOM     38  C   UNL     1      11.804  18.208  67.832  0.00  0.00    +0.120 A 
ATOM     39  N   UNL     1      12.622  18.096  68.952  0.00  0.00    -0.263 NA
ATOM     40  C   UNL     1      14.022  18.127  68.870  0.00  0.00    +0.111 A 
ENDBRANCH   4   3
ENDBRANCH  10   9
BRANCH  12  13
ATOM     13  N   UNL     1      10.013  22.200  58.367  0.00  0.00    -0.281 N 
ATOM     14  C   UNL     1       8.812  22.878  58.503  0.00  0.00    +0.248 C 
ATOM     30  O   UNL     1       7.779  22.376  58.920  0.00  0.00    -0.270 OA
ATOM     31  H   UNL     1      10.738  22.675  57.829  0.00  0.00    +0.155 HD
BRANCH  14  15
ATOM     15  C   UNL     1       8.747  24.317  58.105  0.00  0.00    +0.037 A 
ATOM     16  C   UNL     1       7.542  25.117  58.342  0.00  0.00    +0.013 A 
ATOM     17  C   UNL     1       7.499  26.498  57.933  0.00  0.00    +0.005 A 
ATOM     18  C   UNL     1       8.667  27.090  57.284  0.00  0.00    -0.033 A 
ATOM     28  C   UNL     1       9.851  26.275  57.065  0.00  0.00    +0.005 A 
ATOM     29  C   UNL     1       9.896  24.920  57.464  0.00  0.00    +0.013 A 
BRANCH  18  19
ATOM     19  C   UNL     1       8.702  28.550  56.795  0.00  0.00    +0.119 C 
BRANCH  19  20
ATOM     20  N   UNL     1       8.548  29.619  57.826  0.00  0.00    -0.302 NA
ATOM     21  C   UNL     1       9.173  29.221  59.165  0.00  0.00    +0.066 C 
ATOM     22  C   UNL     1       9.023  30.360  60.225  0.00  0.00    -0.064 C 
ATOM     23  N   UNL     1       7.541  30.699  60.399  0.00  0.00    +0.379 N 
ATOM     24  C   UNL     1       7.392  31.730  61.437  0.00  0.00    -0.096 C 
ATOM     25  H   UNL     1       7.024  29.779  60.758  0.00  0.00    -0.082 HD
ATOM     26  C   UNL     1       6.911  31.094  59.071  0.00  0.00    -0.064 C 
ATOM     27  C   UNL     1       7.092  29.967  58.016  0.00  0.00    +0.066 C 
ENDBRANCH  19  20
ENDBRANCH  18  19
ENDBRANCH  14  15
ENDBRANCH  12  13
TORSDOF 6
ENDMDL
MODEL 5
REMARK VINA RESULT:      -8.3      6.929     11.772
REMARK  Name = C:\Users\Docking\Desktop\test protocol\1iep_ligandH.pdb
REMARK  8 active torsions:
REMARK  status: ('A' for Active; 'I' for Inactive)
REMARK    1  A    between atoms: _5  and  _11
REMARK    2  A    between atoms: _19  and  _21
REMARK    3  A    between atoms: _22  and  _66
REMARK    4  A    between atoms: _27  and  _30
REMARK    5  A    between atoms: _32  and  _33
REMARK    6  A    between atoms: _38  and  _43
REMARK    7  A    between atoms: _43  and  _46
REMARK    8  A    between atoms: _53  and  _55
REMARK                            x       y       z     vdW  Elec       q    Type
REMARK                         _______ _______ _______ _____ _____    ______ ____
ROOT
ATOM     10  C   UNL     1       9.518  18.598  60.504  0.00  0.00    +0.038 A 
ATOM     11  C   UNL     1       8.990  19.865  60.145  0.00  0.00    +0.047 A 
ATOM     12  C   UNL     1       9.465  20.571  58.965  0.00  0.00    +0.035 A 
ATOM     32  C   UNL     1      10.477  19.956  58.171  0.00  0.00    +0.024 A 
ATOM     33  C   UNL     1      11.025  18.670  58.523  0.00  0.00    +0.007 A 
ATOM     34  C   UNL     1      10.562  17.970  59.687  0.00  0.00    -0.029 A 
ATOM     35  C   UNL     1      11.191  16.596  60.018  0.00  0.00    +0.045 C 
ENDROOT
BRANCH  10   9
ATOM      4  C   UNL     1       9.355  17.976  65.260  0.00  0.00    +0.077 A 
ATOM      5  C   UNL     1      10.357  18.978  65.485  0.00  0.00    +0.048 A 
ATOM      6  C   UNL     1      10.893  19.626  64.349  0.00  0.00    +0.116 A 
ATOM      7  N   UNL     1      10.453  19.288  63.088  0.00  0.00    -0.223 NA
ATOM      8  C   UNL     1       9.488  18.315  62.906  0.00  0.00    +0.220 A 
ATOM      9  N   UNL     1       9.025  17.965  61.647  0.00  0.00    -0.283 N 
ATOM     36  H   UNL     1       8.317  17.237  61.554  0.00  0.00    +0.155 HD
ATOM     37  N   UNL     1       8.961  17.681  63.974  0.00  0.00    -0.214 NA
BRANCH   4   3
ATOM      1  C   UNL     1       8.238  16.722  68.793  0.00  0.00    +0.020 A 
ATOM      2  C   UNL     1       8.905  17.495  67.771  0.00  0.00    +0.013 A 
ATOM      3  C   UNL     1       8.691  17.205  66.359  0.00  0.00    +0.019 A 
ATOM     38  C   UNL     1       7.789  16.118  66.012  0.00  0.00    +0.120 A 
ATOM     39  N   UNL     1       7.162  15.389  67.017  0.00  0.00    -0.263 NA
ATOM     40  C   UNL     1       7.361  15.658  68.380  0.00  0.00    +0.111 A 
ENDBRANCH   4   3
ENDBRANCH  10   9
BRANCH  12  13
ATOM     13  N   UNL     1       8.972  21.863  58.555  0.00  0.00    -0.281 N 
ATOM     14  C   UNL     1       9.398  23.110  58.980  0.00  0.00    +0.248 C 
ATOM     30  O   UNL     1      10.127  23.301  59.942  0.00  0.00    -0.270 OA
ATOM     31  H   UNL     1       8.218  21.856  57.868  0.00  0.00    +0.155 HD
BRANCH  14  15
ATOM     15  C   UNL     1       8.936  24.323  58.238  0.00  0.00    +0.037 A 
ATOM     16  C   UNL     1       9.733  24.898  57.151  0.00  0.00    +0.013 A 
ATOM     17  C   UNL     1       9.272  26.078  56.463  0.00  0.00    +0.005 A 
ATOM     18  C   UNL     1       8.006  26.689  56.858  0.00  0.00    -0.033 A 
ATOM     28  C   UNL     1       7.233  26.095  57.936  0.00  0.00    +0.005 A 
ATOM     29  C   UNL     1       7.682  24.939  58.614  0.00  0.00    +0.013 A 
BRANCH  18  19
ATOM     19  C   UNL     1       7.448  27.961  56.193  0.00  0.00    +0.119 C 
BRANCH  19  20
ATOM     20  N   UNL     1       7.333  29.184  57.044  0.00  0.00    -0.302 NA
ATOM     21  C   UNL     1       8.299  29.149  58.231  0.00  0.00    +0.066 C 
ATOM     22  C   UNL     1       8.183  30.446  59.097  0.00  0.00    -0.064 C 
ATOM     23  N   UNL     1       6.739  30.607  59.578  0.00  0.00    +0.379 N 
ATOM     24  C   UNL     1       6.639  31.793  60.440  0.00  0.00    -0.096 C 
ATOM     25  H   UNL     1       6.488  29.715  60.198  0.00  0.00    -0.082 HD
ATOM     26  C   UNL     1       5.772  30.639  58.403  0.00  0.00    -0.064 C 
ATOM     27  C   UNL     1       5.917  29.359  57.532  0.00  0.00    +0.066 C 
ENDBRANCH  19  20
ENDBRANCH  18  19
ENDBRANCH  14  15
ENDBRANCH  12  13
TORSDOF 6
ENDMDL
