MODEL 1
REMARK VINA RESULT:      -8.6      0.000      0.000
REMARK  Name = C:\Users\Docking\Desktop\test protocol\1iep_ligandH.pdb
REMARK  8 active torsions:
REMARK  status: ('A' for Active; 'I' for Inactive)
REMARK    1  A    between atoms: _5  and  _11
REMARK    2  A    between atoms: _19  and  _21
REMARK    3  A    between atoms: _22  and  _66
REMARK    4  A    between atoms: _27  and  _30
REMARK    5  A    between atoms: _32  and  _33
REMARK    6  A    between atoms: _38  and  _43
REMARK    7  A    between atoms: _43  and  _46
REMARK    8  A    between atoms: _53  and  _55
REMARK                            x       y       z     vdW  Elec       q    Type
REMARK                         _______ _______ _______ _____ _____    ______ ____
ROOT
ATOM     10  C   UNL     1      11.646  20.279  61.364  0.00  0.00    +0.038 A 
ATOM     11  C   UNL     1      12.858  19.941  62.017  0.00  0.00    +0.047 A 
ATOM     12  C   UNL     1      14.139  20.419  61.520  0.00  0.00    +0.035 A 
ATOM     32  C   UNL     1      14.148  21.242  60.357  0.00  0.00    +0.024 A 
ATOM     33  C   UNL     1      12.925  21.595  59.680  0.00  0.00    +0.007 A 
ATOM     34  C   UNL     1      11.659  21.124  60.163  0.00  0.00    -0.029 A 
ATOM     35  C   UNL     1      10.380  21.529  59.394  0.00  0.00    +0.045 C 
ENDROOT
BRANCH  10   9
ATOM      4  C   UNL     1       8.428  16.780  62.022  0.00  0.00    +0.077 A 
ATOM      5  C   UNL     1       9.192  15.849  61.242  0.00  0.00    +0.048 A 
ATOM      6  C   UNL     1      10.404  16.313  60.683  0.00  0.00    +0.116 A 
ATOM      7  N   UNL     1      10.811  17.612  60.895  0.00  0.00    -0.223 NA
ATOM      8  C   UNL     1      10.050  18.484  61.651  0.00  0.00    +0.220 A 
ATOM      9  N   UNL     1      10.444  19.793  61.884  0.00  0.00    -0.283 N 
ATOM     36  H   UNL     1       9.851  20.407  62.441  0.00  0.00    +0.155 HD
ATOM     37  N   UNL     1       8.888  18.066  62.195  0.00  0.00    -0.214 NA
BRANCH   4   3
ATOM      1  C   UNL     1       4.996  15.102  62.863  0.00  0.00    +0.020 A 
ATOM      2  C   UNL     1       6.241  15.392  62.189  0.00  0.00    +0.013 A 
ATOM      3  C   UNL     1       7.127  16.438  62.681  0.00  0.00    +0.019 A 
ATOM     38  C   UNL     1       6.723  17.178  63.867  0.00  0.00    +0.120 A 
ATOM     39  N   UNL     1       5.518  16.877  64.494  0.00  0.00    -0.263 NA
ATOM     40  C   UNL     1       4.655  15.874  64.029  0.00  0.00    +0.111 A 
ENDBRANCH   4   3
ENDBRANCH  10   9
BRANCH  12  13
ATOM     13  N   UNL     1      15.404  20.101  62.137  0.00  0.00    -0.281 N 
ATOM     14  C   UNL     1      16.018  20.744  63.199  0.00  0.00    +0.248 C 
ATOM     30  O   UNL     1      15.672  21.829  63.644  0.00  0.00    -0.270 OA
ATOM     31  H   UNL     1      15.906  19.306  61.743  0.00  0.00    +0.155 HD
BRANCH  14  15
ATOM     15  C   UNL     1      17.197  20.096  63.851  0.00  0.00    +0.037 A 
ATOM     16  C   UNL     1      18.546  20.648  63.704  0.00  0.00    +0.013 A 
ATOM     17  C   UNL     1      19.668  19.994  64.329  0.00  0.00    +0.005 A 
ATOM     18  C   UNL     1      19.444  18.780  65.110  0.00  0.00    -0.033 A 
ATOM     28  C   UNL     1      18.094  18.256  65.244  0.00  0.00    +0.005 A 
ATOM     29  C   UNL     1      16.993  18.895  64.632  0.00  0.00    +0.013 A 
BRANCH  18  19
ATOM     19  C   UNL     1      20.585  18.003  65.794  0.00  0.00    +0.119 C 
BRANCH  19  20
ATOM     20  N   UNL     1      20.203  17.006  66.838  0.00  0.00    -0.302 NA
ATOM     21  C   UNL     1      21.164  17.024  68.029  0.00  0.00    +0.066 C 
ATOM     22  C   UNL     1      20.737  15.990  69.121  0.00  0.00    -0.064 C 
ATOM     23  N   UNL     1      20.671  14.594  68.500  0.00  0.00    +0.379 N 
ATOM     24  C   UNL     1      20.326  13.611  69.537  0.00  0.00    -0.096 C 
ATOM     25  H   UNL     1      21.690  14.344  68.122  0.00  0.00    -0.082 HD
ATOM     26  C   UNL     1      19.719  14.567  67.312  0.00  0.00    -0.064 C 
ATOM     27  C   UNL     1      20.136  15.619  66.247  0.00  0.00    +0.066 C 
ENDBRANCH  19  20
ENDBRANCH  18  19
ENDBRANCH  14  15
ENDBRANCH  12  13
TORSDOF 6
ENDMDL
MODEL 2
REMARK VINA RESULT:      -8.4      2.412     12.231
REMARK  Name = C:\Users\Docking\Desktop\test protocol\1iep_ligandH.pdb
REMARK  8 active torsions:
REMARK  status: ('A' for Active; 'I' for Inactive)
REMARK    1  A    between atoms: _5  and  _11
REMARK    2  A    between atoms: _19  and  _21
REMARK    3  A    between atoms: _22  and  _66
REMARK    4  A    between atoms: _27  and  _30
REMARK    5  A    between atoms: _32  and  _33
REMARK    6  A    between atoms: _38  and  _43
REMARK    7  A    between atoms: _43  and  _46
REMARK    8  A    between atoms: _53  and  _55
REMARK                            x       y       z     vdW  Elec       q    Type
REMARK                         _______ _______ _______ _____ _____    ______ ____
ROOT
ATOM     10  C   UNL     1      14.311  19.848  62.046  0.00  0.00    +0.038 A 
ATOM     11  C   UNL     1      13.102  19.116  62.160  0.00  0.00    +0.047 A 
ATOM     12  C   UNL     1      11.847  19.650  61.653  0.00  0.00    +0.035 A 
ATOM     32  C   UNL     1      11.861  20.933  61.033  0.00  0.00    +0.024 A 
ATOM     33  C   UNL     1      13.081  21.692  60.910  0.00  0.00    +0.007 A 
ATOM     34  C   UNL     1      14.321  21.171  61.411  0.00  0.00    -0.029 A 
ATOM     35  C   UNL     1      15.597  22.032  61.257  0.00  0.00    +0.045 C 
ENDROOT
BRANCH  10   9
ATOM      4  C   UNL     1      17.278  18.781  65.665  0.00  0.00    +0.077 A 
ATOM      5  C   UNL     1      16.427  19.419  66.629  0.00  0.00    +0.048 A 
ATOM      6  C   UNL     1      15.239  20.016  66.151  0.00  0.00    +0.116 A 
ATOM      7  N   UNL     1      14.934  19.972  64.808  0.00  0.00    -0.223 NA
ATOM      8  C   UNL     1      15.777  19.350  63.905  0.00  0.00    +0.220 A 
ATOM      9  N   UNL     1      15.486  19.287  62.551  0.00  0.00    -0.283 N 
ATOM     36  H   UNL     1      16.137  18.826  61.916  0.00  0.00    +0.155 HD
ATOM     37  N   UNL     1      16.918  18.774  64.336  0.00  0.00    -0.214 NA
BRANCH   4   3
ATOM      1  C   UNL     1      20.187  16.175  65.880  0.00  0.00    +0.020 A 
ATOM      2  C   UNL     1      18.930  16.785  65.511  0.00  0.00    +0.013 A 
ATOM      3  C   UNL     1      18.566  18.103  66.015  0.00  0.00    +0.019 A 
ATOM     38  C   UNL     1      19.503  18.783  66.897  0.00  0.00    +0.120 A 
ATOM     39  N   UNL     1      20.706  18.170  67.235  0.00  0.00    -0.263 NA
ATOM     40  C   UNL     1      21.066  16.901  66.758  0.00  0.00    +0.111 A 
ENDBRANCH   4   3
ENDBRANCH  10   9
BRANCH  12  13
ATOM     13  N   UNL     1      10.587  18.955  61.747  0.00  0.00    -0.281 N 
ATOM     14  C   UNL     1      10.272  17.695  61.267  0.00  0.00    +0.248 C 
ATOM     30  O   UNL     1      10.968  17.056  60.491  0.00  0.00    -0.270 OA
ATOM     31  H   UNL     1       9.837  19.454  62.226  0.00  0.00    +0.155 HD
BRANCH  14  15
ATOM     15  C   UNL     1       8.991  17.058  61.699  0.00  0.00    +0.037 A 
ATOM     16  C   UNL     1       8.175  17.639  62.768  0.00  0.00    +0.013 A 
ATOM     17  C   UNL     1       6.953  16.995  63.177  0.00  0.00    +0.005 A 
ATOM     18  C   UNL     1       6.537  15.761  62.515  0.00  0.00    -0.033 A 
ATOM     28  C   UNL     1       7.362  15.208  61.453  0.00  0.00    +0.005 A 
ATOM     29  C   UNL     1       8.562  15.837  61.050  0.00  0.00    +0.013 A 
BRANCH  18  19
ATOM     19  C   UNL     1       5.258  14.994  62.901  0.00  0.00    +0.119 C 
BRANCH  19  20
ATOM     20  N   UNL     1       4.013  15.314  62.141  0.00  0.00    -0.302 NA
ATOM     21  C   UNL     1       3.331  16.582  62.664  0.00  0.00    +0.066 C 
ATOM     22  C   UNL     1       2.043  16.915  61.844  0.00  0.00    -0.064 C 
ATOM     23  N   UNL     1       1.085  15.723  61.897  0.00  0.00    +0.379 N 
ATOM     24  C   UNL     1      -0.152  16.055  61.175  0.00  0.00    -0.096 C 
ATOM     25  H   UNL     1       0.818  15.552  62.966  0.00  0.00    -0.082 HD
ATOM     26  C   UNL     1       1.756  14.458  61.381  0.00  0.00    -0.064 C 
ATOM     27  C   UNL     1       3.052  14.152  62.184  0.00  0.00    +0.066 C 
ENDBRANCH  19  20
ENDBRANCH  18  19
ENDBRANCH  14  15
ENDBRANCH  12  13
TORSDOF 6
ENDMDL
MODEL 3
REMARK VINA RESULT:      -8.4      1.069      1.643
REMARK  Name = C:\Users\Docking\Desktop\test protocol\1iep_ligandH.pdb
REMARK  8 active torsions:
REMARK  status: ('A' for Active; 'I' for Inactive)
REMARK    1  A    between atoms: _5  and  _11
REMARK    2  A    between atoms: _19  and  _21
REMARK    3  A    between atoms: _22  and  _66
REMARK    4  A    between atoms: _27  and  _30
REMARK    5  A    between atoms: _32  and  _33
REMARK    6  A    between atoms: _38  and  _43
REMARK    7  A    between atoms: _43  and  _46
REMARK    8  A    between atoms: _53  and  _55
REMARK                            x       y       z     vdW  Elec       q    Type
REMARK                         _______ _______ _______ _____ _____    ______ ____
ROOT
ATOM     10  C   UNL     1      11.847  20.317  61.537  0.00  0.00    +0.038 A 
ATOM     11  C   UNL     1      13.072  19.948  62.148  0.00  0.00    +0.047 A 
ATOM     12  C   UNL     1      14.344  20.432  61.635  0.00  0.00    +0.035 A 
ATOM     32  C   UNL     1      14.331  21.293  60.499  0.00  0.00    +0.024 A 
ATOM     33  C   UNL     1      13.095  21.678  59.865  0.00  0.00    +0.007 A 
ATOM     34  C   UNL     1      11.837  21.201  60.365  0.00  0.00    -0.029 A 
ATOM     35  C   UNL     1      10.543  21.641  59.642  0.00  0.00    +0.045 C 
ENDROOT
BRANCH  10   9
ATOM      4  C   UNL     1       8.542  16.873  62.046  0.00  0.00    +0.077 A 
ATOM      5  C   UNL     1       9.236  15.993  61.151  0.00  0.00    +0.048 A 
ATOM      6  C   UNL     1      10.436  16.467  60.575  0.00  0.00    +0.116 A 
ATOM      7  N   UNL     1      10.898  17.730  60.879  0.00  0.00    -0.223 NA
ATOM      8  C   UNL     1      10.204  18.554  61.745  0.00  0.00    +0.220 A 
ATOM      9  N   UNL     1      10.654  19.824  62.072  0.00  0.00    -0.283 N 
ATOM     36  H   UNL     1      10.109  20.404  62.709  0.00  0.00    +0.155 HD
ATOM     37  N   UNL     1       9.055  18.125  62.307  0.00  0.00    -0.214 NA
BRANCH   4   3
ATOM      1  C   UNL     1       5.133  15.180  62.945  0.00  0.00    +0.020 A 
ATOM      2  C   UNL     1       6.356  15.488  62.240  0.00  0.00    +0.013 A 
ATOM      3  C   UNL     1       7.263  16.515  62.737  0.00  0.00    +0.019 A 
ATOM     38  C   UNL     1       6.901  17.217  63.959  0.00  0.00    +0.120 A 
ATOM     39  N   UNL     1       5.716  16.900  64.615  0.00  0.00    -0.263 NA
ATOM     40  C   UNL     1       4.834  15.914  64.146  0.00  0.00    +0.111 A 
ENDBRANCH   4   3
ENDBRANCH  10   9
BRANCH  12  13
ATOM     13  N   UNL     1      15.621  20.084  62.208  0.00  0.00    -0.281 N 
ATOM     14  C   UNL     1      16.227  20.628  63.329  0.00  0.00    +0.248 C 
ATOM     30  O   UNL     1      15.858  21.650  63.888  0.00  0.00    -0.270 OA
ATOM     31  H   UNL     1      16.140  19.348  61.730  0.00  0.00    +0.155 HD
BRANCH  14  15
ATOM     15  C   UNL     1      17.427  19.945  63.903  0.00  0.00    +0.037 A 
ATOM     16  C   UNL     1      17.317  18.640  64.559  0.00  0.00    +0.013 A 
ATOM     17  C   UNL     1      18.487  18.011  65.119  0.00  0.00    +0.005 A 
ATOM     18  C   UNL     1      19.778  18.688  65.025  0.00  0.00    -0.033 A 
ATOM     28  C   UNL     1      19.859  19.981  64.365  0.00  0.00    +0.005 A 
ATOM     29  C   UNL     1      18.715  20.600  63.815  0.00  0.00    +0.013 A 
BRANCH  18  19
ATOM     19  C   UNL     1      21.075  18.102  65.614  0.00  0.00    +0.119 C 
BRANCH  19  20
ATOM     20  N   UNL     1      21.202  18.080  67.102  0.00  0.00    -0.302 NA
ATOM     21  C   UNL     1      22.332  18.988  67.595  0.00  0.00    +0.066 C 
ATOM     22  C   UNL     1      22.436  18.970  69.155  0.00  0.00    -0.064 C 
ATOM     23  N   UNL     1      22.648  17.533  69.633  0.00  0.00    +0.379 N 
ATOM     24  C   UNL     1      22.804  17.520  71.095  0.00  0.00    -0.096 C 
ATOM     25  H   UNL     1      23.602  17.166  69.188  0.00  0.00    -0.082 HD
ATOM     26  C   UNL     1      21.530  16.623  69.145  0.00  0.00    -0.064 C 
ATOM     27  C   UNL     1      21.416  16.670  67.595  0.00  0.00    +0.066 C 
ENDBRANCH  19  20
ENDBRANCH  18  19
ENDBRANCH  14  15
ENDBRANCH  12  13
TORSDOF 6
ENDMDL
MODEL 4
REMARK VINA RESULT:      -8.4      3.055     12.529
REMARK  Name = C:\Users\Docking\Desktop\test protocol\1iep_ligandH.pdb
REMARK  8 active torsions:
REMARK  status: ('A' for Active; 'I' for Inactive)
REMARK    1  A    between atoms: _5  and  _11
REMARK    2  A    between atoms: _19  and  _21
REMARK    3  A    between atoms: _22  and  _66
REMARK    4  A    between atoms: _27  and  _30
REMARK    5  A    between atoms: _32  and  _33
REMARK    6  A    between atoms: _38  and  _43
REMARK    7  A    between atoms: _43  and  _46
REMARK    8  A    between atoms: _53  and  _55
REMARK                            x       y       z     vdW  Elec       q    Type
REMARK                         _______ _______ _______ _____ _____    ______ ____
ROOT
ATOM     10  C   UNL     1      19.879  16.853  66.210  0.00  0.00    +0.038 A 
ATOM     11  C   UNL     1      18.584  17.104  65.687  0.00  0.00    +0.047 A 
ATOM     12  C   UNL     1      17.938  18.395  65.866  0.00  0.00    +0.035 A 
ATOM     32  C   UNL     1      18.640  19.409  66.580  0.00  0.00    +0.024 A 
ATOM     33  C   UNL     1      19.956  19.170  67.119  0.00  0.00    +0.007 A 
ATOM     34  C   UNL     1      20.598  17.898  66.948  0.00  0.00    -0.029 A 
ATOM     35  C   UNL     1      22.007  17.696  67.553  0.00  0.00    +0.045 C 
ENDROOT
BRANCH  10   9
ATOM      4  C   UNL     1      21.113  12.472  67.733  0.00  0.00    +0.077 A 
ATOM      5  C   UNL     1      20.597  12.719  69.048  0.00  0.00    +0.048 A 
ATOM      6  C   UNL     1      20.028  13.988  69.294  0.00  0.00    +0.116 A 
ATOM      7  N   UNL     1      19.984  14.933  68.291  0.00  0.00    -0.223 NA
ATOM      8  C   UNL     1      20.492  14.663  67.034  0.00  0.00    +0.220 A 
ATOM      9  N   UNL     1      20.452  15.595  66.009  0.00  0.00    -0.283 N 
ATOM     36  H   UNL     1      20.844  15.360  65.098  0.00  0.00    +0.155 HD
ATOM     37  N   UNL     1      21.042  13.458  66.775  0.00  0.00    -0.214 NA
BRANCH   4   3
ATOM      1  C   UNL     1      23.346   9.816  65.926  0.00  0.00    +0.020 A 
ATOM      2  C   UNL     1      22.771  11.091  66.289  0.00  0.00    +0.013 A 
ATOM      3  C   UNL     1      21.742  11.178  67.318  0.00  0.00    +0.019 A 
ATOM     38  C   UNL     1      21.314   9.947  67.965  0.00  0.00    +0.120 A 
ATOM     39  N   UNL     1      21.885   8.733  67.593  0.00  0.00    -0.263 NA
ATOM     40  C   UNL     1      22.874   8.637  66.604  0.00  0.00    +0.111 A 
ENDBRANCH   4   3
ENDBRANCH  10   9
BRANCH  12  13
ATOM     13  N   UNL     1      16.622  18.705  65.365  0.00  0.00    -0.281 N 
ATOM     14  C   UNL     1      16.291  19.465  64.255  0.00  0.00    +0.248 C 
ATOM     30  O   UNL     1      17.076  20.174  63.644  0.00  0.00    -0.270 OA
ATOM     31  H   UNL     1      15.840  18.318  65.893  0.00  0.00    +0.155 HD
BRANCH  14  15
ATOM     15  C   UNL     1      14.880  19.446  63.761  0.00  0.00    +0.037 A 
ATOM     16  C   UNL     1      14.537  19.932  62.423  0.00  0.00    +0.013 A 
ATOM     17  C   UNL     1      13.166  19.918  61.978  0.00  0.00    +0.005 A 
ATOM     18  C   UNL     1      12.128  19.413  62.873  0.00  0.00    -0.033 A 
ATOM     28  C   UNL     1      12.497  18.932  64.194  0.00  0.00    +0.005 A 
ATOM     29  C   UNL     1      13.839  18.945  64.634  0.00  0.00    +0.013 A 
BRANCH  18  19
ATOM     19  C   UNL     1      10.636  19.381  62.490  0.00  0.00    +0.119 C 
BRANCH  19  20
ATOM     20  N   UNL     1      10.186  20.313  61.413  0.00  0.00    -0.302 NA
ATOM     21  C   UNL     1       9.466  21.539  61.980  0.00  0.00    +0.066 C 
ATOM     22  C   UNL     1       9.022  22.515  60.841  0.00  0.00    -0.064 C 
ATOM     23  N   UNL     1       8.124  21.767  59.854  0.00  0.00    +0.379 N 
ATOM     24  C   UNL     1       7.658  22.696  58.814  0.00  0.00    -0.096 C 
ATOM     25  H   UNL     1       7.229  21.410  60.415  0.00  0.00    -0.082 HD
ATOM     26  C   UNL     1       8.832  20.544  59.288  0.00  0.00    -0.064 C 
ATOM     27  C   UNL     1       9.295  19.596  60.429  0.00  0.00    +0.066 C 
ENDBRANCH  19  20
ENDBRANCH  18  19
ENDBRANCH  14  15
ENDBRANCH  12  13
TORSDOF 6
ENDMDL
MODEL 5
REMARK VINA RESULT:      -8.2      2.641     12.140
REMARK  Name = C:\Users\Docking\Desktop\test protocol\1iep_ligandH.pdb
REMARK  8 active torsions:
REMARK  status: ('A' for Active; 'I' for Inactive)
REMARK    1  A    between atoms: _5  and  _11
REMARK    2  A    between atoms: _19  and  _21
REMARK    3  A    between atoms: _22  and  _66
REMARK    4  A    between atoms: _27  and  _30
REMARK    5  A    between atoms: _32  and  _33
REMARK    6  A    between atoms: _38  and  _43
REMARK    7  A    between atoms: _43  and  _46
REMARK    8  A    between atoms: _53  and  _55
REMARK                            x       y       z     vdW  Elec       q    Type
REMARK                         _______ _______ _______ _____ _____    ______ ____
ROOT
ATOM     10  C   UNL     1      19.855  16.814  66.279  0.00  0.00    +0.038 A 
ATOM     11  C   UNL     1      18.551  17.062  65.779  0.00  0.00    +0.047 A 
ATOM     12  C   UNL     1      17.901  18.348  65.979  0.00  0.00    +0.035 A 
ATOM     32  C   UNL     1      18.610  19.360  66.689  0.00  0.00    +0.024 A 
ATOM     33  C   UNL     1      19.936  19.125  67.204  0.00  0.00    +0.007 A 
ATOM     34  C   UNL     1      20.581  17.858  67.013  0.00  0.00    -0.029 A 
ATOM     35  C   UNL     1      22.001  17.660  67.592  0.00  0.00    +0.045 C 
ENDROOT
BRANCH  10   9
ATOM      4  C   UNL     1      21.105  12.415  67.736  0.00  0.00    +0.077 A 
ATOM      5  C   UNL     1      20.590  12.641  69.055  0.00  0.00    +0.048 A 
ATOM      6  C   UNL     1      20.017  13.906  69.320  0.00  0.00    +0.116 A 
ATOM      7  N   UNL     1      19.969  14.865  68.332  0.00  0.00    -0.223 NA
ATOM      8  C   UNL     1      20.477  14.614  67.070  0.00  0.00    +0.220 A 
ATOM      9  N   UNL     1      20.432  15.561  66.059  0.00  0.00    -0.283 N 
ATOM     36  H   UNL     1      20.824  15.340  65.144  0.00  0.00    +0.155 HD
ATOM     37  N   UNL     1      21.030  13.415  66.793  0.00  0.00    -0.214 NA
BRANCH   4   3
ATOM      1  C   UNL     1      23.270   9.779  65.821  0.00  0.00    +0.020 A 
ATOM      2  C   UNL     1      22.688  11.046  66.200  0.00  0.00    +0.013 A 
ATOM      3  C   UNL     1      21.737  11.129  67.301  0.00  0.00    +0.019 A 
ATOM     38  C   UNL     1      21.394   9.902  68.004  0.00  0.00    +0.120 A 
ATOM     39  N   UNL     1      21.969   8.696  67.616  0.00  0.00    -0.263 NA
ATOM     40  C   UNL     1      22.884   8.604  66.556  0.00  0.00    +0.111 A 
ENDBRANCH   4   3
ENDBRANCH  10   9
BRANCH  12  13
ATOM     13  N   UNL     1      16.575  18.654  65.502  0.00  0.00    -0.281 N 
ATOM     14  C   UNL     1      16.220  19.448  64.423  0.00  0.00    +0.248 C 
ATOM     30  O   UNL     1      16.988  20.191  63.830  0.00  0.00    -0.270 OA
ATOM     31  H   UNL     1      15.805  18.236  66.023  0.00  0.00    +0.155 HD
BRANCH  14  15
ATOM     15  C   UNL     1      14.805  19.423  63.943  0.00  0.00    +0.037 A 
ATOM     16  C   UNL     1      14.447  19.909  62.608  0.00  0.00    +0.013 A 
ATOM     17  C   UNL     1      13.072  19.889  62.176  0.00  0.00    +0.005 A 
ATOM     18  C   UNL     1      12.044  19.381  63.081  0.00  0.00    -0.033 A 
ATOM     28  C   UNL     1      12.428  18.900  64.398  0.00  0.00    +0.005 A 
ATOM     29  C   UNL     1      13.775  18.919  64.825  0.00  0.00    +0.013 A 
BRANCH  18  19
ATOM     19  C   UNL     1      10.550  19.342  62.712  0.00  0.00    +0.119 C 
BRANCH  19  20
ATOM     20  N   UNL     1       9.835  18.043  62.887  0.00  0.00    -0.302 NA
ATOM     21  C   UNL     1       9.821  17.216  61.598  0.00  0.00    +0.066 C 
ATOM     22  C   UNL     1       9.089  15.850  61.806  0.00  0.00    -0.064 C 
ATOM     23  N   UNL     1       7.664  16.108  62.300  0.00  0.00    +0.379 N 
ATOM     24  C   UNL     1       6.955  14.828  62.441  0.00  0.00    -0.096 C 
ATOM     25  H   UNL     1       7.138  16.703  61.517  0.00  0.00    -0.082 HD
ATOM     26  C   UNL     1       7.669  16.932  63.580  0.00  0.00    -0.064 C 
ATOM     27  C   UNL     1       8.424  18.274  63.371  0.00  0.00    +0.066 C 
ENDBRANCH  19  20
ENDBRANCH  18  19
ENDBRANCH  14  15
ENDBRANCH  12  13
TORSDOF 6
ENDMDL
