MODEL 1
REMARK VINA RESULT:      -9.6      0.000      0.000
REMARK  Name = C:\Users\Docking\Desktop\test protocol\1iep_ligandH.pdb
REMARK  8 active torsions:
REMARK  status: ('A' for Active; 'I' for Inactive)
REMARK    1  A    between atoms: _5  and  _11
REMARK    2  A    between atoms: _19  and  _21
REMARK    3  A    between atoms: _22  and  _66
REMARK    4  A    between atoms: _27  and  _30
REMARK    5  A    between atoms: _32  and  _33
REMARK    6  A    between atoms: _38  and  _43
REMARK    7  A    between atoms: _43  and  _46
REMARK    8  A    between atoms: _53  and  _55
REMARK                            x       y       z     vdW  Elec       q    Type
REMARK                         _______ _______ _______ _____ _____    ______ ____
ROOT
ATOM     10  C   UNL     1      19.363  23.267  14.175  0.00  0.00    +0.038 A 
ATOM     11  C   UNL     1      18.245  23.377  15.041  0.00  0.00    +0.047 A 
ATOM     12  C   UNL     1      16.975  22.748  14.714  0.00  0.00    +0.035 A 
ATOM     32  C   UNL     1      16.880  22.011  13.498  0.00  0.00    +0.024 A 
ATOM     33  C   UNL     1      18.006  21.890  12.605  0.00  0.00    +0.007 A 
ATOM     34  C   UNL     1      19.260  22.511  12.922  0.00  0.00    -0.029 A 
ATOM     35  C   UNL     1      20.432  22.353  11.925  0.00  0.00    +0.045 C 
ENDROOT
BRANCH  10   9
ATOM      4  C   UNL     1      22.004  27.183  15.028  0.00  0.00    +0.077 A 
ATOM      5  C   UNL     1      20.918  28.060  14.695  0.00  0.00    +0.048 A 
ATOM      6  C   UNL     1      19.699  27.463  14.302  0.00  0.00    +0.116 A 
ATOM      7  N   UNL     1      19.585  26.091  14.250  0.00  0.00    -0.223 NA
ATOM      8  C   UNL     1      20.652  25.274  14.576  0.00  0.00    +0.220 A 
ATOM      9  N   UNL     1      20.558  23.891  14.539  0.00  0.00    -0.283 N 
ATOM     36  H   UNL     1      21.370  23.324  14.780  0.00  0.00    +0.155 HD
ATOM     37  N   UNL     1      21.828  25.820  14.953  0.00  0.00    -0.214 NA
BRANCH   4   3
ATOM      1  C   UNL     1      25.026  29.484  15.960  0.00  0.00    +0.020 A 
ATOM      2  C   UNL     1      23.709  29.074  15.531  0.00  0.00    +0.013 A 
ATOM      3  C   UNL     1      23.353  27.663  15.464  0.00  0.00    +0.019 A 
ATOM     38  C   UNL     1      24.361  26.683  15.840  0.00  0.00    +0.120 A 
ATOM     39  N   UNL     1      25.622  27.107  16.247  0.00  0.00    -0.263 NA
ATOM     40  C   UNL     1      25.977  28.463  16.315  0.00  0.00    +0.111 A 
ENDBRANCH   4   3
ENDBRANCH  10   9
BRANCH  12  13
ATOM     13  N   UNL     1      15.803  22.832  15.550  0.00  0.00    -0.281 N 
ATOM     14  C   UNL     1      15.739  22.785  16.933  0.00  0.00    +0.248 C 
ATOM     30  O   UNL     1      16.664  22.447  17.657  0.00  0.00    -0.270 OA
ATOM     31  H   UNL     1      14.913  22.939  15.064  0.00  0.00    +0.155 HD
BRANCH  14  15
ATOM     15  C   UNL     1      14.458  23.152  17.609  0.00  0.00    +0.037 A 
ATOM     16  C   UNL     1      14.447  23.718  18.961  0.00  0.00    +0.013 A 
ATOM     17  C   UNL     1      13.196  24.048  19.597  0.00  0.00    +0.005 A 
ATOM     18  C   UNL     1      11.944  23.814  18.880  0.00  0.00    -0.033 A 
ATOM     28  C   UNL     1      11.985  23.256  17.538  0.00  0.00    +0.005 A 
ATOM     29  C   UNL     1      13.209  22.930  16.912  0.00  0.00    +0.013 A 
BRANCH  18  19
ATOM     19  C   UNL     1      10.562  24.116  19.489  0.00  0.00    +0.119 C 
BRANCH  19  20
ATOM     20  N   UNL     1      10.444  25.335  20.344  0.00  0.00    -0.302 NA
ATOM     21  C   UNL     1       9.217  25.278  21.259  0.00  0.00    +0.066 C 
ATOM     22  C   UNL     1       9.121  26.550  22.163  0.00  0.00    -0.064 C 
ATOM     23  N   UNL     1       9.081  27.798  21.279  0.00  0.00    +0.379 N 
ATOM     24  C   UNL     1       8.932  28.992  22.124  0.00  0.00    -0.096 C 
ATOM     25  H   UNL     1       8.175  27.725  20.633  0.00  0.00    -0.082 HD
ATOM     26  C   UNL     1      10.296  27.861  20.365  0.00  0.00    -0.064 C 
ATOM     27  C   UNL     1      10.398  26.579  19.492  0.00  0.00    +0.066 C 
ENDBRANCH  19  20
ENDBRANCH  18  19
ENDBRANCH  14  15
ENDBRANCH  12  13
TORSDOF 6
ENDMDL
MODEL 2
REMARK VINA RESULT:      -9.6      4.966     11.986
REMARK  Name = C:\Users\Docking\Desktop\test protocol\1iep_ligandH.pdb
REMARK  8 active torsions:
REMARK  status: ('A' for Active; 'I' for Inactive)
REMARK    1  A    between atoms: _5  and  _11
REMARK    2  A    between atoms: _19  and  _21
REMARK    3  A    between atoms: _22  and  _66
REMARK    4  A    between atoms: _27  and  _30
REMARK    5  A    between atoms: _32  and  _33
REMARK    6  A    between atoms: _38  and  _43
REMARK    7  A    between atoms: _43  and  _46
REMARK    8  A    between atoms: _53  and  _55
REMARK                            x       y       z     vdW  Elec       q    Type
REMARK                         _______ _______ _______ _____ _____    ______ ____
ROOT
ATOM     10  C   UNL     1      18.060  22.312  15.212  0.00  0.00    +0.038 A 
ATOM     11  C   UNL     1      19.077  23.301  15.251  0.00  0.00    +0.047 A 
ATOM     12  C   UNL     1      18.796  24.651  15.714  0.00  0.00    +0.035 A 
ATOM     32  C   UNL     1      17.468  24.959  16.132  0.00  0.00    +0.024 A 
ATOM     33  C   UNL     1      16.423  23.966  16.098  0.00  0.00    +0.007 A 
ATOM     34  C   UNL     1      16.694  22.634  15.640  0.00  0.00    -0.029 A 
ATOM     35  C   UNL     1      15.533  21.612  15.619  0.00  0.00    +0.045 C 
ENDROOT
BRANCH  10   9
ATOM      4  C   UNL     1      19.526  19.278  11.793  0.00  0.00    +0.077 A 
ATOM      5  C   UNL     1      19.626  20.329  10.821  0.00  0.00    +0.048 A 
ATOM      6  C   UNL     1      19.284  21.634  11.239  0.00  0.00    +0.116 A 
ATOM      7  N   UNL     1      18.875  21.861  12.535  0.00  0.00    -0.223 NA
ATOM      8  C   UNL     1      18.788  20.825  13.447  0.00  0.00    +0.220 A 
ATOM      9  N   UNL     1      18.386  21.032  14.758  0.00  0.00    -0.283 N 
ATOM     36  H   UNL     1      18.327  20.240  15.398  0.00  0.00    +0.155 HD
ATOM     37  N   UNL     1      19.107  19.569  13.072  0.00  0.00    -0.214 NA
BRANCH   4   3
ATOM      1  C   UNL     1      19.381  15.617  10.425  0.00  0.00    +0.020 A 
ATOM      2  C   UNL     1      19.017  16.993  10.673  0.00  0.00    +0.013 A 
ATOM      3  C   UNL     1      19.856  17.847  11.505  0.00  0.00    +0.019 A 
ATOM     38  C   UNL     1      21.065  17.273  12.075  0.00  0.00    +0.120 A 
ATOM     39  N   UNL     1      21.390  15.944  11.820  0.00  0.00    -0.263 NA
ATOM     40  C   UNL     1      20.589  15.112  11.022  0.00  0.00    +0.111 A 
ENDBRANCH   4   3
ENDBRANCH  10   9
BRANCH  12  13
ATOM     13  N   UNL     1      19.785  25.698  15.768  0.00  0.00    -0.281 N 
ATOM     14  C   UNL     1      20.757  25.903  16.734  0.00  0.00    +0.248 C 
ATOM     30  O   UNL     1      20.786  25.335  17.816  0.00  0.00    -0.270 OA
ATOM     31  H   UNL     1      19.766  26.371  15.002  0.00  0.00    +0.155 HD
BRANCH  14  15
ATOM     15  C   UNL     1      21.845  26.891  16.465  0.00  0.00    +0.037 A 
ATOM     16  C   UNL     1      21.650  28.001  15.528  0.00  0.00    +0.013 A 
ATOM     17  C   UNL     1      22.722  28.930  15.274  0.00  0.00    +0.005 A 
ATOM     18  C   UNL     1      24.000  28.753  15.960  0.00  0.00    -0.033 A 
ATOM     28  C   UNL     1      24.165  27.647  16.888  0.00  0.00    +0.005 A 
ATOM     29  C   UNL     1      23.117  26.733  17.138  0.00  0.00    +0.013 A 
BRANCH  18  19
ATOM     19  C   UNL     1      25.206  29.684  15.733  0.00  0.00    +0.119 C 
BRANCH  19  20
ATOM     20  N   UNL     1      26.561  29.136  16.043  0.00  0.00    -0.302 NA
ATOM     21  C   UNL     1      27.534  30.230  16.491  0.00  0.00    +0.066 C 
ATOM     22  C   UNL     1      28.939  29.636  16.833  0.00  0.00    -0.064 C 
ATOM     23  N   UNL     1      29.486  28.891  15.613  0.00  0.00    +0.379 N 
ATOM     24  C   UNL     1      30.832  28.381  15.912  0.00  0.00    -0.096 C 
ATOM     25  H   UNL     1      29.580  29.628  14.782  0.00  0.00    -0.082 HD
ATOM     26  C   UNL     1      28.522  27.804  15.160  0.00  0.00    -0.064 C 
ATOM     27  C   UNL     1      27.121  28.400  14.851  0.00  0.00    +0.066 C 
ENDBRANCH  19  20
ENDBRANCH  18  19
ENDBRANCH  14  15
ENDBRANCH  12  13
TORSDOF 6
ENDMDL
MODEL 3
REMARK VINA RESULT:      -9.5      5.004     12.728
REMARK  Name = C:\Users\Docking\Desktop\test protocol\1iep_ligandH.pdb
REMARK  8 active torsions:
REMARK  status: ('A' for Active; 'I' for Inactive)
REMARK    1  A    between atoms: _5  and  _11
REMARK    2  A    between atoms: _19  and  _21
REMARK    3  A    between atoms: _22  and  _66
REMARK    4  A    between atoms: _27  and  _30
REMARK    5  A    between atoms: _32  and  _33
REMARK    6  A    between atoms: _38  and  _43
REMARK    7  A    between atoms: _43  and  _46
REMARK    8  A    between atoms: _53  and  _55
REMARK                            x       y       z     vdW  Elec       q    Type
REMARK                         _______ _______ _______ _____ _____    ______ ____
ROOT
ATOM     10  C   UNL     1      18.448  22.973  15.416  0.00  0.00    +0.038 A 
ATOM     11  C   UNL     1      19.740  23.558  15.423  0.00  0.00    +0.047 A 
ATOM     12  C   UNL     1      19.945  24.924  15.879  0.00  0.00    +0.035 A 
ATOM     32  C   UNL     1      18.811  25.665  16.323  0.00  0.00    +0.024 A 
ATOM     33  C   UNL     1      17.491  25.087  16.321  0.00  0.00    +0.007 A 
ATOM     34  C   UNL     1      17.282  23.741  15.870  0.00  0.00    -0.029 A 
ATOM     35  C   UNL     1      15.843  23.174  15.884  0.00  0.00    +0.045 C 
ENDROOT
BRANCH  10   9
ATOM      4  C   UNL     1      19.013  19.549  12.100  0.00  0.00    +0.077 A 
ATOM      5  C   UNL     1      19.612  20.464  11.172  0.00  0.00    +0.048 A 
ATOM      6  C   UNL     1      19.750  21.808  11.584  0.00  0.00    +0.116 A 
ATOM      7  N   UNL     1      19.318  22.197  12.833  0.00  0.00    -0.223 NA
ATOM      8  C   UNL     1      18.743  21.290  13.703  0.00  0.00    +0.220 A 
ATOM      9  N   UNL     1      18.308  21.658  14.967  0.00  0.00    -0.283 N 
ATOM     36  H   UNL     1      17.882  20.960  15.577  0.00  0.00    +0.155 HD
ATOM     37  N   UNL     1      18.598  20.000  13.333  0.00  0.00    -0.214 NA
BRANCH   4   3
ATOM      1  C   UNL     1      17.757  15.849  12.294  0.00  0.00    +0.020 A 
ATOM      2  C   UNL     1      17.927  17.248  12.614  0.00  0.00    +0.013 A 
ATOM      3  C   UNL     1      18.801  18.095  11.813  0.00  0.00    +0.019 A 
ATOM     38  C   UNL     1      19.493  17.491  10.684  0.00  0.00    +0.120 A 
ATOM     39  N   UNL     1      19.311  16.141  10.400  0.00  0.00    -0.263 NA
ATOM     40  C   UNL     1      18.474  15.316  11.165  0.00  0.00    +0.111 A 
ENDBRANCH   4   3
ENDBRANCH  10   9
BRANCH  12  13
ATOM     13  N   UNL     1      21.232  25.573  15.901  0.00  0.00    -0.281 N 
ATOM     14  C   UNL     1      21.676  26.612  15.099  0.00  0.00    +0.248 C 
ATOM     30  O   UNL     1      21.105  27.000  14.091  0.00  0.00    -0.270 OA
ATOM     31  H   UNL     1      21.897  25.225  16.593  0.00  0.00    +0.155 HD
BRANCH  14  15
ATOM     15  C   UNL     1      22.947  27.311  15.461  0.00  0.00    +0.037 A 
ATOM     16  C   UNL     1      23.044  28.773  15.432  0.00  0.00    +0.013 A 
ATOM     17  C   UNL     1      24.287  29.421  15.769  0.00  0.00    +0.005 A 
ATOM     18  C   UNL     1      25.442  28.608  16.141  0.00  0.00    -0.033 A 
ATOM     28  C   UNL     1      25.315  27.160  16.167  0.00  0.00    +0.005 A 
ATOM     29  C   UNL     1      24.100  26.520  15.836  0.00  0.00    +0.013 A 
BRANCH  18  19
ATOM     19  C   UNL     1      26.813  29.214  16.495  0.00  0.00    +0.119 C 
BRANCH  19  20
ATOM     20  N   UNL     1      28.020  28.374  16.233  0.00  0.00    -0.302 NA
ATOM     21  C   UNL     1      28.965  28.336  17.437  0.00  0.00    +0.066 C 
ATOM     22  C   UNL     1      30.211  27.435  17.154  0.00  0.00    -0.064 C 
ATOM     23  N   UNL     1      30.938  27.951  15.912  0.00  0.00    +0.379 N 
ATOM     24  C   UNL     1      32.143  27.142  15.676  0.00  0.00    -0.096 C 
ATOM     25  H   UNL     1      31.267  28.995  16.122  0.00  0.00    -0.082 HD
ATOM     26  C   UNL     1      30.005  27.995  14.710  0.00  0.00    -0.064 C 
ATOM     27  C   UNL     1      28.755  28.869  15.012  0.00  0.00    +0.066 C 
ENDBRANCH  19  20
ENDBRANCH  18  19
ENDBRANCH  14  15
ENDBRANCH  12  13
TORSDOF 6
ENDMDL
MODEL 4
REMARK VINA RESULT:      -9.5      5.399     10.673
REMARK  Name = C:\Users\Docking\Desktop\test protocol\1iep_ligandH.pdb
REMARK  8 active torsions:
REMARK  status: ('A' for Active; 'I' for Inactive)
REMARK    1  A    between atoms: _5  and  _11
REMARK    2  A    between atoms: _19  and  _21
REMARK    3  A    between atoms: _22  and  _66
REMARK    4  A    between atoms: _27  and  _30
REMARK    5  A    between atoms: _32  and  _33
REMARK    6  A    between atoms: _38  and  _43
REMARK    7  A    between atoms: _43  and  _46
REMARK    8  A    between atoms: _53  and  _55
REMARK                            x       y       z     vdW  Elec       q    Type
REMARK                         _______ _______ _______ _____ _____    ______ ____
ROOT
ATOM     10  C   UNL     1      19.657  24.013  15.464  0.00  0.00    +0.038 A 
ATOM     11  C   UNL     1      19.807  22.995  14.488  0.00  0.00    +0.047 A 
ATOM     12  C   UNL     1      18.655  22.272  13.972  0.00  0.00    +0.035 A 
ATOM     32  C   UNL     1      17.364  22.615  14.470  0.00  0.00    +0.024 A 
ATOM     33  C   UNL     1      17.193  23.647  15.462  0.00  0.00    +0.007 A 
ATOM     34  C   UNL     1      18.327  24.361  15.977  0.00  0.00    -0.029 A 
ATOM     35  C   UNL     1      18.085  25.453  17.045  0.00  0.00    +0.045 C 
ENDROOT
BRANCH  10   9
ATOM      4  C   UNL     1      22.662  27.756  15.481  0.00  0.00    +0.077 A 
ATOM      5  C   UNL     1      21.912  28.439  14.467  0.00  0.00    +0.048 A 
ATOM      6  C   UNL     1      20.763  27.790  13.963  0.00  0.00    +0.116 A 
ATOM      7  N   UNL     1      20.400  26.550  14.444  0.00  0.00    -0.223 NA
ATOM      8  C   UNL     1      21.148  25.918  15.420  0.00  0.00    +0.220 A 
ATOM      9  N   UNL     1      20.798  24.675  15.924  0.00  0.00    -0.283 N 
ATOM     36  H   UNL     1      21.379  24.239  16.639  0.00  0.00    +0.155 HD
ATOM     37  N   UNL     1      22.250  26.516  15.918  0.00  0.00    -0.214 NA
BRANCH   4   3
ATOM      1  C   UNL     1      25.688  30.075  16.357  0.00  0.00    +0.020 A 
ATOM      2  C   UNL     1      24.494  29.581  15.712  0.00  0.00    +0.013 A 
ATOM      3  C   UNL     1      23.899  28.313  16.116  0.00  0.00    +0.019 A 
ATOM     38  C   UNL     1      24.541  27.564  17.185  0.00  0.00    +0.120 A 
ATOM     39  N   UNL     1      25.692  28.064  17.787  0.00  0.00    -0.263 NA
ATOM     40  C   UNL     1      26.274  29.282  17.406  0.00  0.00    +0.111 A 
ENDBRANCH   4   3
ENDBRANCH  10   9
BRANCH  12  13
ATOM     13  N   UNL     1      18.746  21.223  12.987  0.00  0.00    -0.281 N 
ATOM     14  C   UNL     1      19.470  20.045  13.062  0.00  0.00    +0.248 C 
ATOM     30  O   UNL     1      20.325  19.812  13.904  0.00  0.00    -0.270 OA
ATOM     31  H   UNL     1      18.211  21.366  12.130  0.00  0.00    +0.155 HD
BRANCH  14  15
ATOM     15  C   UNL     1      19.220  18.977  12.047  0.00  0.00    +0.037 A 
ATOM     16  C   UNL     1      18.482  17.759  12.391  0.00  0.00    +0.013 A 
ATOM     17  C   UNL     1      18.269  16.737  11.398  0.00  0.00    +0.005 A 
ATOM     18  C   UNL     1      18.795  16.929  10.048  0.00  0.00    -0.033 A 
ATOM     28  C   UNL     1      19.519  18.149   9.732  0.00  0.00    +0.005 A 
ATOM     29  C   UNL     1      19.730  19.153  10.704  0.00  0.00    +0.013 A 
BRANCH  18  19
ATOM     19  C   UNL     1      18.633  15.882   8.930  0.00  0.00    +0.119 C 
BRANCH  19  20
ATOM     20  N   UNL     1      18.768  16.360   7.522  0.00  0.00    -0.302 NA
ATOM     21  C   UNL     1      17.412  16.466   6.819  0.00  0.00    +0.066 C 
ATOM     22  C   UNL     1      17.569  16.988   5.354  0.00  0.00    -0.064 C 
ATOM     23  N   UNL     1      18.508  16.059   4.582  0.00  0.00    +0.379 N 
ATOM     24  C   UNL     1      18.612  16.514   3.188  0.00  0.00    -0.096 C 
ATOM     25  H   UNL     1      18.046  15.044   4.573  0.00  0.00    -0.082 HD
ATOM     26  C   UNL     1      19.858  15.945   5.276  0.00  0.00    -0.064 C 
ATOM     27  C   UNL     1      19.687  15.454   6.740  0.00  0.00    +0.066 C 
ENDBRANCH  19  20
ENDBRANCH  18  19
ENDBRANCH  14  15
ENDBRANCH  12  13
TORSDOF 6
ENDMDL
MODEL 5
REMARK VINA RESULT:      -9.5      5.086     11.936
REMARK  Name = C:\Users\Docking\Desktop\test protocol\1iep_ligandH.pdb
REMARK  8 active torsions:
REMARK  status: ('A' for Active; 'I' for Inactive)
REMARK    1  A    between atoms: _5  and  _11
REMARK    2  A    between atoms: _19  and  _21
REMARK    3  A    between atoms: _22  and  _66
REMARK    4  A    between atoms: _27  and  _30
REMARK    5  A    between atoms: _32  and  _33
REMARK    6  A    between atoms: _38  and  _43
REMARK    7  A    between atoms: _43  and  _46
REMARK    8  A    between atoms: _53  and  _55
REMARK                            x       y       z     vdW  Elec       q    Type
REMARK                         _______ _______ _______ _____ _____    ______ ____
ROOT
ATOM     10  C   UNL     1      18.400  22.736  15.334  0.00  0.00    +0.038 A 
ATOM     11  C   UNL     1      19.673  23.361  15.344  0.00  0.00    +0.047 A 
ATOM     12  C   UNL     1      19.831  24.740  15.782  0.00  0.00    +0.035 A 
ATOM     32  C   UNL     1      18.671  25.451  16.205  0.00  0.00    +0.024 A 
ATOM     33  C   UNL     1      17.369  24.831  16.200  0.00  0.00    +0.007 A 
ATOM     34  C   UNL     1      17.207  23.473  15.767  0.00  0.00    -0.029 A 
ATOM     35  C   UNL     1      15.786  22.861  15.776  0.00  0.00    +0.045 C 
ENDROOT
BRANCH  10   9
ATOM      4  C   UNL     1      19.059  19.292  12.056  0.00  0.00    +0.077 A 
ATOM      5  C   UNL     1      19.612  20.217  11.109  0.00  0.00    +0.048 A 
ATOM      6  C   UNL     1      19.703  21.571  11.502  0.00  0.00    +0.116 A 
ATOM      7  N   UNL     1      19.271  21.960  12.751  0.00  0.00    -0.223 NA
ATOM      8  C   UNL     1      18.740  21.043  13.640  0.00  0.00    +0.220 A 
ATOM      9  N   UNL     1      18.306  21.410  14.904  0.00  0.00    -0.283 N 
ATOM     36  H   UNL     1      17.915  20.705  15.528  0.00  0.00    +0.155 HD
ATOM     37  N   UNL     1      18.641  19.744  13.288  0.00  0.00    -0.214 NA
BRANCH   4   3
ATOM      1  C   UNL     1      17.759  15.604  12.130  0.00  0.00    +0.020 A 
ATOM      2  C   UNL     1      17.870  17.014  12.422  0.00  0.00    +0.013 A 
ATOM      3  C   UNL     1      18.900  17.828  11.789  0.00  0.00    +0.019 A 
ATOM     38  C   UNL     1      19.810  17.178  10.857  0.00  0.00    +0.120 A 
ATOM     39  N   UNL     1      19.680  15.818  10.597  0.00  0.00    -0.263 NA
ATOM     40  C   UNL     1      18.693  15.024  11.201  0.00  0.00    +0.111 A 
ENDBRANCH   4   3
ENDBRANCH  10   9
BRANCH  12  13
ATOM     13  N   UNL     1      21.097  25.430  15.806  0.00  0.00    -0.281 N 
ATOM     14  C   UNL     1      21.496  26.503  15.028  0.00  0.00    +0.248 C 
ATOM     30  O   UNL     1      20.899  26.900  14.038  0.00  0.00    -0.270 OA
ATOM     31  H   UNL     1      21.781  25.084  16.479  0.00  0.00    +0.155 HD
BRANCH  14  15
ATOM     15  C   UNL     1      22.748  27.234  15.393  0.00  0.00    +0.037 A 
ATOM     16  C   UNL     1      23.934  26.517  15.871  0.00  0.00    +0.013 A 
ATOM     17  C   UNL     1      25.123  27.248  16.232  0.00  0.00    +0.005 A 
ATOM     18  C   UNL     1      25.132  28.704  16.116  0.00  0.00    -0.033 A 
ATOM     28  C   UNL     1      23.944  29.389  15.634  0.00  0.00    +0.005 A 
ATOM     29  C   UNL     1      22.777  28.676  15.279  0.00  0.00    +0.013 A 
BRANCH  18  19
ATOM     19  C   UNL     1      26.350  29.566  16.500  0.00  0.00    +0.119 C 
BRANCH  19  20
ATOM     20  N   UNL     1      26.104  31.013  16.771  0.00  0.00    -0.302 NA
ATOM     21  C   UNL     1      26.606  31.905  15.632  0.00  0.00    +0.066 C 
ATOM     22  C   UNL     1      26.321  33.415  15.923  0.00  0.00    -0.064 C 
ATOM     23  N   UNL     1      26.976  33.809  17.248  0.00  0.00    +0.379 N 
ATOM     24  C   UNL     1      26.759  35.241  17.495  0.00  0.00    -0.096 C 
ATOM     25  H   UNL     1      28.074  33.646  17.143  0.00  0.00    -0.082 HD
ATOM     26  C   UNL     1      26.485  32.925  18.386  0.00  0.00    -0.064 C 
ATOM     27  C   UNL     1      26.746  31.425  18.073  0.00  0.00    +0.066 C 
ENDBRANCH  19  20
ENDBRANCH  18  19
ENDBRANCH  14  15
ENDBRANCH  12  13
TORSDOF 6
ENDMDL
