MODEL 1
REMARK VINA RESULT:      -9.1      0.000      0.000
REMARK  Name = C:\Users\Docking\Desktop\test protocol\1iep_ligandH.pdb
REMARK  8 active torsions:
REMARK  status: ('A' for Active; 'I' for Inactive)
REMARK    1  A    between atoms: _5  and  _11
REMARK    2  A    between atoms: _19  and  _21
REMARK    3  A    between atoms: _22  and  _66
REMARK    4  A    between atoms: _27  and  _30
REMARK    5  A    between atoms: _32  and  _33
REMARK    6  A    between atoms: _38  and  _43
REMARK    7  A    between atoms: _43  and  _46
REMARK    8  A    between atoms: _53  and  _55
REMARK                            x       y       z     vdW  Elec       q    Type
REMARK                         _______ _______ _______ _____ _____    ______ ____
ROOT
ATOM     10  C   UNL     1       9.951  25.526  19.032  0.00  0.00    +0.038 A 
ATOM     11  C   UNL     1      11.240  25.348  18.468  0.00  0.00    +0.047 A 
ATOM     12  C   UNL     1      11.864  24.035  18.415  0.00  0.00    +0.035 A 
ATOM     32  C   UNL     1      11.145  22.924  18.945  0.00  0.00    +0.024 A 
ATOM     33  C   UNL     1       9.834  23.087  19.523  0.00  0.00    +0.007 A 
ATOM     34  C   UNL     1       9.215  24.380  19.579  0.00  0.00    -0.029 A 
ATOM     35  C   UNL     1       7.811  24.497  20.216  0.00  0.00    +0.045 C 
ENDROOT
BRANCH  10   9
ATOM      4  C   UNL     1       8.786  29.590  21.304  0.00  0.00    +0.077 A 
ATOM      5  C   UNL     1       9.294  29.106  22.555  0.00  0.00    +0.048 A 
ATOM      6  C   UNL     1       9.841  27.803  22.573  0.00  0.00    +0.116 A 
ATOM      7  N   UNL     1       9.872  27.050  21.420  0.00  0.00    -0.223 NA
ATOM      8  C   UNL     1       9.372  27.546  20.230  0.00  0.00    +0.220 A 
ATOM      9  N   UNL     1       9.400  26.809  19.056  0.00  0.00    -0.283 N 
ATOM     36  H   UNL     1       9.014  27.208  18.201  0.00  0.00    +0.155 HD
ATOM     37  N   UNL     1       8.843  28.787  20.187  0.00  0.00    -0.214 NA
BRANCH   4   3
ATOM      1  C   UNL     1       6.606  32.801  21.797  0.00  0.00    +0.020 A 
ATOM      2  C   UNL     1       7.158  31.483  22.015  0.00  0.00    +0.013 A 
ATOM      3  C   UNL     1       8.180  30.947  21.124  0.00  0.00    +0.019 A 
ATOM     38  C   UNL     1       8.626  31.776  20.015  0.00  0.00    +0.120 A 
ATOM     39  N   UNL     1       8.075  33.041  19.829  0.00  0.00    -0.263 NA
ATOM     40  C   UNL     1       7.090  33.566  20.679  0.00  0.00    +0.111 A 
ENDBRANCH   4   3
ENDBRANCH  10   9
BRANCH  12  13
ATOM     13  N   UNL     1      13.174  23.795  17.862  0.00  0.00    -0.281 N 
ATOM     14  C   UNL     1      13.511  22.975  16.798  0.00  0.00    +0.248 C 
ATOM     30  O   UNL     1      12.760  22.154  16.293  0.00  0.00    -0.270 OA
ATOM     31  H   UNL     1      13.946  24.289  18.310  0.00  0.00    +0.155 HD
BRANCH  14  15
ATOM     15  C   UNL     1      14.886  23.071  16.220  0.00  0.00    +0.037 A 
ATOM     16  C   UNL     1      16.044  23.383  17.062  0.00  0.00    +0.013 A 
ATOM     17  C   UNL     1      17.357  23.487  16.476  0.00  0.00    +0.005 A 
ATOM     18  C   UNL     1      17.519  23.276  15.040  0.00  0.00    -0.033 A 
ATOM     28  C   UNL     1      16.355  22.962  14.229  0.00  0.00    +0.005 A 
ATOM     29  C   UNL     1      15.066  22.861  14.799  0.00  0.00    +0.013 A 
BRANCH  18  19
ATOM     19  C   UNL     1      18.880  23.387  14.327  0.00  0.00    +0.119 C 
BRANCH  19  20
ATOM     20  N   UNL     1      19.470  22.129  13.779  0.00  0.00    -0.302 NA
ATOM     21  C   UNL     1      20.788  21.766  14.469  0.00  0.00    +0.066 C 
ATOM     22  C   UNL     1      21.380  20.435  13.900  0.00  0.00    -0.064 C 
ATOM     23  N   UNL     1      21.579  20.574  12.390  0.00  0.00    +0.379 N 
ATOM     24  C   UNL     1      22.190  19.346  11.861  0.00  0.00    -0.096 C 
ATOM     25  H   UNL     1      22.297  21.409  12.219  0.00  0.00    -0.082 HD
ATOM     26  C   UNL     1      20.274  20.938  11.696  0.00  0.00    -0.064 C 
ATOM     27  C   UNL     1      19.679  22.246  12.290  0.00  0.00    +0.066 C 
ENDBRANCH  19  20
ENDBRANCH  18  19
ENDBRANCH  14  15
ENDBRANCH  12  13
TORSDOF 6
ENDMDL
MODEL 2
REMARK VINA RESULT:      -9.1      4.683      7.999
REMARK  Name = C:\Users\Docking\Desktop\test protocol\1iep_ligandH.pdb
REMARK  8 active torsions:
REMARK  status: ('A' for Active; 'I' for Inactive)
REMARK    1  A    between atoms: _5  and  _11
REMARK    2  A    between atoms: _19  and  _21
REMARK    3  A    between atoms: _22  and  _66
REMARK    4  A    between atoms: _27  and  _30
REMARK    5  A    between atoms: _32  and  _33
REMARK    6  A    between atoms: _38  and  _43
REMARK    7  A    between atoms: _43  and  _46
REMARK    8  A    between atoms: _53  and  _55
REMARK                            x       y       z     vdW  Elec       q    Type
REMARK                         _______ _______ _______ _____ _____    ______ ____
ROOT
ATOM     10  C   UNL     1      15.480  22.673  15.026  0.00  0.00    +0.038 A 
ATOM     11  C   UNL     1      16.698  23.388  15.162  0.00  0.00    +0.047 A 
ATOM     12  C   UNL     1      17.944  22.858  14.631  0.00  0.00    +0.035 A 
ATOM     32  C   UNL     1      17.914  21.598  13.965  0.00  0.00    +0.024 A 
ATOM     33  C   UNL     1      16.685  20.858  13.819  0.00  0.00    +0.007 A 
ATOM     34  C   UNL     1      15.453  21.374  14.343  0.00  0.00    -0.029 A 
ATOM     35  C   UNL     1      14.167  20.535  14.163  0.00  0.00    +0.045 C 
ENDROOT
BRANCH  10   9
ATOM      4  C   UNL     1      12.543  23.654  18.693  0.00  0.00    +0.077 A 
ATOM      5  C   UNL     1      13.393  22.979  19.632  0.00  0.00    +0.048 A 
ATOM      6  C   UNL     1      14.573  22.387  19.129  0.00  0.00    +0.116 A 
ATOM      7  N   UNL     1      14.871  22.470  17.786  0.00  0.00    -0.223 NA
ATOM      8  C   UNL     1      14.029  23.127  16.908  0.00  0.00    +0.220 A 
ATOM      9  N   UNL     1      14.313  23.229  15.554  0.00  0.00    -0.283 N 
ATOM     36  H   UNL     1      13.662  23.716  14.938  0.00  0.00    +0.155 HD
ATOM     37  N   UNL     1      12.895  23.699  17.363  0.00  0.00    -0.214 NA
BRANCH   4   3
ATOM      1  C   UNL     1       9.650  26.270  18.989  0.00  0.00    +0.020 A 
ATOM      2  C   UNL     1      10.899  25.660  18.593  0.00  0.00    +0.013 A 
ATOM      3  C   UNL     1      11.263  24.333  19.072  0.00  0.00    +0.019 A 
ATOM     38  C   UNL     1      10.335  23.643  19.955  0.00  0.00    +0.120 A 
ATOM     39  N   UNL     1       9.140  24.257  20.320  0.00  0.00    -0.263 NA
ATOM     40  C   UNL     1       8.779  25.534  19.868  0.00  0.00    +0.111 A 
ENDBRANCH   4   3
ENDBRANCH  10   9
BRANCH  12  13
ATOM     13  N   UNL     1      19.213  23.535  14.746  0.00  0.00    -0.281 N 
ATOM     14  C   UNL     1      19.855  24.308  13.793  0.00  0.00    +0.248 C 
ATOM     30  O   UNL     1      19.534  24.360  12.615  0.00  0.00    -0.270 OA
ATOM     31  H   UNL     1      19.696  23.431  15.639  0.00  0.00    +0.155 HD
BRANCH  14  15
ATOM     15  C   UNL     1      21.032  25.131  14.205  0.00  0.00    +0.037 A 
ATOM     16  C   UNL     1      20.950  26.592  14.277  0.00  0.00    +0.013 A 
ATOM     17  C   UNL     1      22.106  27.364  14.660  0.00  0.00    +0.005 A 
ATOM     18  C   UNL     1      23.354  26.674  14.977  0.00  0.00    -0.033 A 
ATOM     28  C   UNL     1      23.406  25.223  14.902  0.00  0.00    +0.005 A 
ATOM     29  C   UNL     1      22.276  24.464  14.525  0.00  0.00    +0.013 A 
BRANCH  18  19
ATOM     19  C   UNL     1      24.643  27.418  15.375  0.00  0.00    +0.119 C 
BRANCH  19  20
ATOM     20  N   UNL     1      25.845  26.587  15.683  0.00  0.00    -0.302 NA
ATOM     21  C   UNL     1      25.945  26.252  17.173  0.00  0.00    +0.066 C 
ATOM     22  C   UNL     1      27.195  25.363  17.474  0.00  0.00    -0.064 C 
ATOM     23  N   UNL     1      28.457  26.083  16.995  0.00  0.00    +0.379 N 
ATOM     24  C   UNL     1      29.640  25.276  17.329  0.00  0.00    -0.096 C 
ATOM     25  H   UNL     1      28.532  27.043  17.558  0.00  0.00    -0.082 HD
ATOM     26  C   UNL     1      28.365  26.422  15.514  0.00  0.00    -0.064 C 
ATOM     27  C   UNL     1      27.103  27.281  15.221  0.00  0.00    +0.066 C 
ENDBRANCH  19  20
ENDBRANCH  18  19
ENDBRANCH  14  15
ENDBRANCH  12  13
TORSDOF 6
ENDMDL
MODEL 3
REMARK VINA RESULT:      -9.0      1.718      2.432
REMARK  Name = C:\Users\Docking\Desktop\test protocol\1iep_ligandH.pdb
REMARK  8 active torsions:
REMARK  status: ('A' for Active; 'I' for Inactive)
REMARK    1  A    between atoms: _5  and  _11
REMARK    2  A    between atoms: _19  and  _21
REMARK    3  A    between atoms: _22  and  _66
REMARK    4  A    between atoms: _27  and  _30
REMARK    5  A    between atoms: _32  and  _33
REMARK    6  A    between atoms: _38  and  _43
REMARK    7  A    between atoms: _43  and  _46
REMARK    8  A    between atoms: _53  and  _55
REMARK                            x       y       z     vdW  Elec       q    Type
REMARK                         _______ _______ _______ _____ _____    ______ ____
ROOT
ATOM     10  C   UNL     1      10.021  25.294  19.011  0.00  0.00    +0.038 A 
ATOM     11  C   UNL     1      11.305  25.114  18.436  0.00  0.00    +0.047 A 
ATOM     12  C   UNL     1      11.937  23.804  18.404  0.00  0.00    +0.035 A 
ATOM     32  C   UNL     1      11.232  22.699  18.963  0.00  0.00    +0.024 A 
ATOM     33  C   UNL     1       9.926  22.865  19.552  0.00  0.00    +0.007 A 
ATOM     34  C   UNL     1       9.298  24.155  19.589  0.00  0.00    -0.029 A 
ATOM     35  C   UNL     1       7.900  24.275  20.239  0.00  0.00    +0.045 C 
ENDROOT
BRANCH  10   9
ATOM      4  C   UNL     1       8.854  29.396  21.212  0.00  0.00    +0.077 A 
ATOM      5  C   UNL     1       9.380  28.942  22.467  0.00  0.00    +0.048 A 
ATOM      6  C   UNL     1       9.936  27.643  22.505  0.00  0.00    +0.116 A 
ATOM      7  N   UNL     1       9.959  26.866  21.367  0.00  0.00    -0.223 NA
ATOM      8  C   UNL     1       9.441  27.335  20.173  0.00  0.00    +0.220 A 
ATOM      9  N   UNL     1       9.460  26.574  19.015  0.00  0.00    -0.283 N 
ATOM     36  H   UNL     1       9.062  26.952  18.156  0.00  0.00    +0.155 HD
ATOM     37  N   UNL     1       8.903  28.571  20.111  0.00  0.00    -0.214 NA
BRANCH   4   3
ATOM      1  C   UNL     1       6.742  32.649  21.724  0.00  0.00    +0.020 A 
ATOM      2  C   UNL     1       7.310  31.343  21.965  0.00  0.00    +0.013 A 
ATOM      3  C   UNL     1       8.236  30.745  21.011  0.00  0.00    +0.019 A 
ATOM     38  C   UNL     1       8.571  31.503  19.815  0.00  0.00    +0.120 A 
ATOM     39  N   UNL     1       8.007  32.758  19.608  0.00  0.00    -0.263 NA
ATOM     40  C   UNL     1       7.114  33.342  20.518  0.00  0.00    +0.111 A 
ENDBRANCH   4   3
ENDBRANCH  10   9
BRANCH  12  13
ATOM     13  N   UNL     1      13.242  23.561  17.841  0.00  0.00    -0.281 N 
ATOM     14  C   UNL     1      13.551  22.929  16.648  0.00  0.00    +0.248 C 
ATOM     30  O   UNL     1      12.756  22.283  15.982  0.00  0.00    -0.270 OA
ATOM     31  H   UNL     1      14.035  23.897  18.389  0.00  0.00    +0.155 HD
BRANCH  14  15
ATOM     15  C   UNL     1      14.949  23.014  16.126  0.00  0.00    +0.037 A 
ATOM     16  C   UNL     1      16.079  23.286  17.019  0.00  0.00    +0.013 A 
ATOM     17  C   UNL     1      17.415  23.380  16.488  0.00  0.00    +0.005 A 
ATOM     18  C   UNL     1      17.629  23.201  15.054  0.00  0.00    -0.033 A 
ATOM     28  C   UNL     1      16.492  22.927  14.191  0.00  0.00    +0.005 A 
ATOM     29  C   UNL     1      15.181  22.835  14.709  0.00  0.00    +0.013 A 
BRANCH  18  19
ATOM     19  C   UNL     1      19.018  23.306  14.396  0.00  0.00    +0.119 C 
BRANCH  19  20
ATOM     20  N   UNL     1      19.913  24.408  14.860  0.00  0.00    -0.302 NA
ATOM     21  C   UNL     1      20.485  25.214  13.690  0.00  0.00    +0.066 C 
ATOM     22  C   UNL     1      21.400  26.377  14.193  0.00  0.00    -0.064 C 
ATOM     23  N   UNL     1      22.525  25.800  15.055  0.00  0.00    +0.379 N 
ATOM     24  C   UNL     1      23.421  26.885  15.483  0.00  0.00    -0.096 C 
ATOM     25  H   UNL     1      23.117  25.104  14.417  0.00  0.00    -0.082 HD
ATOM     26  C   UNL     1      21.965  24.995  16.219  0.00  0.00    -0.064 C 
ATOM     27  C   UNL     1      21.033  23.860  15.709  0.00  0.00    +0.066 C 
ENDBRANCH  19  20
ENDBRANCH  18  19
ENDBRANCH  14  15
ENDBRANCH  12  13
TORSDOF 6
ENDMDL
MODEL 4
REMARK VINA RESULT:      -8.9      3.337     14.089
REMARK  Name = C:\Users\Docking\Desktop\test protocol\1iep_ligandH.pdb
REMARK  8 active torsions:
REMARK  status: ('A' for Active; 'I' for Inactive)
REMARK    1  A    between atoms: _5  and  _11
REMARK    2  A    between atoms: _19  and  _21
REMARK    3  A    between atoms: _22  and  _66
REMARK    4  A    between atoms: _27  and  _30
REMARK    5  A    between atoms: _32  and  _33
REMARK    6  A    between atoms: _38  and  _43
REMARK    7  A    between atoms: _43  and  _46
REMARK    8  A    between atoms: _53  and  _55
REMARK                            x       y       z     vdW  Elec       q    Type
REMARK                         _______ _______ _______ _____ _____    ______ ____
ROOT
ATOM     10  C   UNL     1      11.113  26.128  20.436  0.00  0.00    +0.038 A 
ATOM     11  C   UNL     1      10.466  27.310  19.995  0.00  0.00    +0.047 A 
ATOM     12  C   UNL     1       9.353  27.880  20.738  0.00  0.00    +0.035 A 
ATOM     32  C   UNL     1       8.926  27.221  21.928  0.00  0.00    +0.024 A 
ATOM     33  C   UNL     1       9.572  26.018  22.390  0.00  0.00    +0.007 A 
ATOM     34  C   UNL     1      10.669  25.450  21.660  0.00  0.00    -0.029 A 
ATOM     35  C   UNL     1      11.320  24.154  22.199  0.00  0.00    +0.045 C 
ENDROOT
BRANCH  10   9
ATOM      4  C   UNL     1      12.977  23.011  17.298  0.00  0.00    +0.077 A 
ATOM      5  C   UNL     1      11.732  22.309  17.166  0.00  0.00    +0.048 A 
ATOM      6  C   UNL     1      10.639  22.778  17.928  0.00  0.00    +0.116 A 
ATOM      7  N   UNL     1      10.790  23.869  18.757  0.00  0.00    -0.223 NA
ATOM      8  C   UNL     1      12.005  24.521  18.863  0.00  0.00    +0.220 A 
ATOM      9  N   UNL     1      12.177  25.624  19.684  0.00  0.00    -0.283 N 
ATOM     36  H   UNL     1      13.091  26.073  19.740  0.00  0.00    +0.155 HD
ATOM     37  N   UNL     1      13.064  24.092  18.146  0.00  0.00    -0.214 NA
BRANCH   4   3
ATOM      1  C   UNL     1      15.578  22.396  14.442  0.00  0.00    +0.020 A 
ATOM      2  C   UNL     1      14.353  22.770  15.110  0.00  0.00    +0.013 A 
ATOM      3  C   UNL     1      14.222  22.637  16.556  0.00  0.00    +0.019 A 
ATOM     38  C   UNL     1      15.359  22.120  17.302  0.00  0.00    +0.120 A 
ATOM     39  N   UNL     1      16.526  21.766  16.632  0.00  0.00    -0.263 NA
ATOM     40  C   UNL     1      16.663  21.888  15.241  0.00  0.00    +0.111 A 
ENDBRANCH   4   3
ENDBRANCH  10   9
BRANCH  12  13
ATOM     13  N   UNL     1       8.651  29.074  20.335  0.00  0.00    -0.281 N 
ATOM     14  C   UNL     1       8.350  30.186  21.104  0.00  0.00    +0.248 C 
ATOM     30  O   UNL     1       8.452  30.232  22.321  0.00  0.00    -0.270 OA
ATOM     31  H   UNL     1       8.339  29.102  19.364  0.00  0.00    +0.155 HD
BRANCH  14  15
ATOM     15  C   UNL     1       7.850  31.420  20.425  0.00  0.00    +0.037 A 
ATOM     16  C   UNL     1       8.775  32.387  19.828  0.00  0.00    +0.013 A 
ATOM     17  C   UNL     1       8.266  33.577  19.194  0.00  0.00    +0.005 A 
ATOM     18  C   UNL     1       6.824  33.806  19.153  0.00  0.00    -0.033 A 
ATOM     28  C   UNL     1       5.929  32.828  19.748  0.00  0.00    +0.005 A 
ATOM     29  C   UNL     1       6.424  31.660  20.372  0.00  0.00    +0.013 A 
BRANCH  18  19
ATOM     19  C   UNL     1       6.194  35.059  18.516  0.00  0.00    +0.119 C 
BRANCH  19  20
ATOM     20  N   UNL     1       6.104  36.285  19.364  0.00  0.00    -0.302 NA
ATOM     21  C   UNL     1       5.042  36.150  20.459  0.00  0.00    +0.066 C 
ATOM     22  C   UNL     1       4.977  37.433  21.350  0.00  0.00    -0.064 C 
ATOM     23  N   UNL     1       4.692  38.649  20.468  0.00  0.00    +0.379 N 
ATOM     24  C   UNL     1       4.573  39.849  21.310  0.00  0.00    -0.096 C 
ATOM     25  H   UNL     1       3.708  38.484  19.972  0.00  0.00    -0.082 HD
ATOM     26  C   UNL     1       5.742  38.790  19.374  0.00  0.00    -0.064 C 
ATOM     27  C   UNL     1       5.819  37.499  18.513  0.00  0.00    +0.066 C 
ENDBRANCH  19  20
ENDBRANCH  18  19
ENDBRANCH  14  15
ENDBRANCH  12  13
TORSDOF 6
ENDMDL
MODEL 5
REMARK VINA RESULT:      -8.6      3.840     12.928
REMARK  Name = C:\Users\Docking\Desktop\test protocol\1iep_ligandH.pdb
REMARK  8 active torsions:
REMARK  status: ('A' for Active; 'I' for Inactive)
REMARK    1  A    between atoms: _5  and  _11
REMARK    2  A    between atoms: _19  and  _21
REMARK    3  A    between atoms: _22  and  _66
REMARK    4  A    between atoms: _27  and  _30
REMARK    5  A    between atoms: _32  and  _33
REMARK    6  A    between atoms: _38  and  _43
REMARK    7  A    between atoms: _43  and  _46
REMARK    8  A    between atoms: _53  and  _55
REMARK                            x       y       z     vdW  Elec       q    Type
REMARK                         _______ _______ _______ _____ _____    ______ ____
ROOT
ATOM     10  C   UNL     1      19.250  23.551  14.693  0.00  0.00    +0.038 A 
ATOM     11  C   UNL     1      18.111  23.681  15.528  0.00  0.00    +0.047 A 
ATOM     12  C   UNL     1      16.780  23.354  15.042  0.00  0.00    +0.035 A 
ATOM     32  C   UNL     1      16.645  22.894  13.699  0.00  0.00    +0.024 A 
ATOM     33  C   UNL     1      17.792  22.758  12.836  0.00  0.00    +0.007 A 
ATOM     34  C   UNL     1      19.107  23.081  13.309  0.00  0.00    -0.029 A 
ATOM     35  C   UNL     1      20.300  22.921  12.338  0.00  0.00    +0.045 C 
ENDROOT
BRANCH  10   9
ATOM      4  C   UNL     1      22.704  26.717  15.735  0.00  0.00    +0.077 A 
ATOM      5  C   UNL     1      21.957  27.805  15.173  0.00  0.00    +0.048 A 
ATOM      6  C   UNL     1      20.692  27.507  14.620  0.00  0.00    +0.116 A 
ATOM      7  N   UNL     1      20.218  26.213  14.633  0.00  0.00    -0.223 NA
ATOM      8  C   UNL     1      20.965  25.186  15.181  0.00  0.00    +0.220 A 
ATOM      9  N   UNL     1      20.505  23.878  15.212  0.00  0.00    -0.283 N 
ATOM     36  H   UNL     1      21.089  23.148  15.618  0.00  0.00    +0.155 HD
ATOM     37  N   UNL     1      22.177  25.445  15.714  0.00  0.00    -0.214 NA
BRANCH   4   3
ATOM      1  C   UNL     1      26.558  26.553  16.384  0.00  0.00    +0.020 A 
ATOM      2  C   UNL     1      25.277  26.376  15.739  0.00  0.00    +0.013 A 
ATOM      3  C   UNL     1      24.055  26.872  16.359  0.00  0.00    +0.019 A 
ATOM     38  C   UNL     1      24.165  27.549  17.643  0.00  0.00    +0.120 A 
ATOM     39  N   UNL     1      25.412  27.704  18.241  0.00  0.00    -0.263 NA
ATOM     40  C   UNL     1      26.594  27.229  17.654  0.00  0.00    +0.111 A 
ENDBRANCH   4   3
ENDBRANCH  10   9
BRANCH  12  13
ATOM     13  N   UNL     1      15.586  23.473  15.841  0.00  0.00    -0.281 N 
ATOM     14  C   UNL     1      15.169  22.654  16.877  0.00  0.00    +0.248 C 
ATOM     30  O   UNL     1      15.656  21.563  17.134  0.00  0.00    -0.270 OA
ATOM     31  H   UNL     1      14.974  24.258  15.616  0.00  0.00    +0.155 HD
BRANCH  14  15
ATOM     15  C   UNL     1      14.037  23.104  17.743  0.00  0.00    +0.037 A 
ATOM     16  C   UNL     1      14.280  23.835  18.990  0.00  0.00    +0.013 A 
ATOM     17  C   UNL     1      13.171  24.243  19.816  0.00  0.00    +0.005 A 
ATOM     18  C   UNL     1      11.809  23.922  19.397  0.00  0.00    -0.033 A 
ATOM     28  C   UNL     1      11.597  23.201  18.153  0.00  0.00    +0.005 A 
ATOM     29  C   UNL     1      12.681  22.798  17.341  0.00  0.00    +0.013 A 
BRANCH  18  19
ATOM     19  C   UNL     1      10.567  24.300  20.226  0.00  0.00    +0.119 C 
BRANCH  19  20
ATOM     20  N   UNL     1      10.451  25.720  20.674  0.00  0.00    -0.302 NA
ATOM     21  C   UNL     1      10.400  25.838  22.200  0.00  0.00    +0.066 C 
ATOM     22  C   UNL     1      10.300  27.332  22.652  0.00  0.00    -0.064 C 
ATOM     23  N   UNL     1       9.065  27.972  22.017  0.00  0.00    +0.379 N 
ATOM     24  C   UNL     1       8.936  29.360  22.486  0.00  0.00    -0.096 C 
ATOM     25  H   UNL     1       8.171  27.410  22.375  0.00  0.00    -0.082 HD
ATOM     26  C   UNL     1       9.105  27.856  20.500  0.00  0.00    -0.064 C 
ATOM     27  C   UNL     1       9.234  26.371  20.063  0.00  0.00    +0.066 C 
ENDBRANCH  19  20
ENDBRANCH  18  19
ENDBRANCH  14  15
ENDBRANCH  12  13
TORSDOF 6
ENDMDL
