MODEL 1
REMARK VINA RESULT:      -9.8      0.000      0.000
REMARK  Name = C:\Users\Docking\Desktop\test protocol\1iep_ligandH.pdb
REMARK  8 active torsions:
REMARK  status: ('A' for Active; 'I' for Inactive)
REMARK    1  A    between atoms: _5  and  _11
REMARK    2  A    between atoms: _19  and  _21
REMARK    3  A    between atoms: _22  and  _66
REMARK    4  A    between atoms: _27  and  _30
REMARK    5  A    between atoms: _32  and  _33
REMARK    6  A    between atoms: _38  and  _43
REMARK    7  A    between atoms: _43  and  _46
REMARK    8  A    between atoms: _53  and  _55
REMARK                            x       y       z     vdW  Elec       q    Type
REMARK                         _______ _______ _______ _____ _____    ______ ____
ROOT
ATOM     10  C   UNL     1      10.147  27.456  20.822  0.00  0.00    +0.038 A 
ATOM     11  C   UNL     1       9.558  28.558  20.152  0.00  0.00    +0.047 A 
ATOM     12  C   UNL     1       8.780  29.551  20.876  0.00  0.00    +0.035 A 
ATOM     32  C   UNL     1       8.624  29.391  22.284  0.00  0.00    +0.024 A 
ATOM     33  C   UNL     1       9.215  28.276  22.981  0.00  0.00    +0.007 A 
ATOM     34  C   UNL     1       9.982  27.292  22.272  0.00  0.00    -0.029 A 
ATOM     35  C   UNL     1      10.587  26.114  23.070  0.00  0.00    +0.045 C 
ENDROOT
BRANCH  10   9
ATOM      4  C   UNL     1      10.468  23.601  17.981  0.00  0.00    +0.077 A 
ATOM      5  C   UNL     1       9.049  23.392  18.004  0.00  0.00    +0.048 A 
ATOM      6  C   UNL     1       8.273  24.295  18.765  0.00  0.00    +0.116 A 
ATOM      7  N   UNL     1       8.881  25.326  19.447  0.00  0.00    -0.223 NA
ATOM      8  C   UNL     1      10.253  25.498  19.405  0.00  0.00    +0.220 A 
ATOM      9  N   UNL     1      10.885  26.532  20.078  0.00  0.00    -0.283 N 
ATOM     36  H   UNL     1      11.899  26.620  20.028  0.00  0.00    +0.155 HD
ATOM     37  N   UNL     1      11.016  24.648  18.687  0.00  0.00    -0.214 NA
BRANCH   4   3
ATOM      1  C   UNL     1      11.946  20.845  15.631  0.00  0.00    +0.020 A 
ATOM      2  C   UNL     1      10.984  21.654  16.343  0.00  0.00    +0.013 A 
ATOM      3  C   UNL     1      11.422  22.733  17.220  0.00  0.00    +0.019 A 
ATOM     38  C   UNL     1      12.851  22.970  17.354  0.00  0.00    +0.120 A 
ATOM     39  N   UNL     1      13.754  22.174  16.657  0.00  0.00    -0.263 NA
ATOM     40  C   UNL     1      13.345  21.132  15.811  0.00  0.00    +0.111 A 
ENDBRANCH   4   3
ENDBRANCH  10   9
BRANCH  12  13
ATOM     13  N   UNL     1       8.152  30.686  20.248  0.00  0.00    -0.281 N 
ATOM     14  C   UNL     1       7.243  31.573  20.803  0.00  0.00    +0.248 C 
ATOM     30  O   UNL     1       6.668  31.396  21.867  0.00  0.00    -0.270 OA
ATOM     31  H   UNL     1       8.408  30.858  19.275  0.00  0.00    +0.155 HD
BRANCH  14  15
ATOM     15  C   UNL     1       6.916  32.830  20.064  0.00  0.00    +0.037 A 
ATOM     16  C   UNL     1       7.967  33.645  19.450  0.00  0.00    +0.013 A 
ATOM     17  C   UNL     1       7.626  34.862  18.757  0.00  0.00    +0.005 A 
ATOM     18  C   UNL     1       6.226  35.270  18.673  0.00  0.00    -0.033 A 
ATOM     28  C   UNL     1       5.203  34.440  19.287  0.00  0.00    +0.005 A 
ATOM     29  C   UNL     1       5.534  33.247  19.968  0.00  0.00    +0.013 A 
BRANCH  18  19
ATOM     19  C   UNL     1       5.772  36.565  17.972  0.00  0.00    +0.119 C 
BRANCH  19  20
ATOM     20  N   UNL     1       5.220  37.652  18.834  0.00  0.00    -0.302 NA
ATOM     21  C   UNL     1       5.567  39.043  18.297  0.00  0.00    +0.066 C 
ATOM     22  C   UNL     1       4.962  40.168  19.198  0.00  0.00    -0.064 C 
ATOM     23  N   UNL     1       5.470  39.999  20.631  0.00  0.00    +0.379 N 
ATOM     24  C   UNL     1       4.949  41.089  21.469  0.00  0.00    -0.096 C 
ATOM     25  H   UNL     1       6.581  40.090  20.609  0.00  0.00    -0.082 HD
ATOM     26  C   UNL     1       5.132  38.617  21.172  0.00  0.00    -0.064 C 
ATOM     27  C   UNL     1       5.712  37.506  20.253  0.00  0.00    +0.066 C 
ENDBRANCH  19  20
ENDBRANCH  18  19
ENDBRANCH  14  15
ENDBRANCH  12  13
TORSDOF 6
ENDMDL
MODEL 2
REMARK VINA RESULT:      -9.7      4.336     14.295
REMARK  Name = C:\Users\Docking\Desktop\test protocol\1iep_ligandH.pdb
REMARK  8 active torsions:
REMARK  status: ('A' for Active; 'I' for Inactive)
REMARK    1  A    between atoms: _5  and  _11
REMARK    2  A    between atoms: _19  and  _21
REMARK    3  A    between atoms: _22  and  _66
REMARK    4  A    between atoms: _27  and  _30
REMARK    5  A    between atoms: _32  and  _33
REMARK    6  A    between atoms: _38  and  _43
REMARK    7  A    between atoms: _43  and  _46
REMARK    8  A    between atoms: _53  and  _55
REMARK                            x       y       z     vdW  Elec       q    Type
REMARK                         _______ _______ _______ _____ _____    ______ ____
ROOT
ATOM     10  C   UNL     1       9.470  25.603  18.917  0.00  0.00    +0.038 A 
ATOM     11  C   UNL     1      10.812  25.416  18.497  0.00  0.00    +0.047 A 
ATOM     12  C   UNL     1      11.410  24.090  18.458  0.00  0.00    +0.035 A 
ATOM     32  C   UNL     1      10.611  22.977  18.853  0.00  0.00    +0.024 A 
ATOM     33  C   UNL     1       9.247  23.150  19.284  0.00  0.00    +0.007 A 
ATOM     34  C   UNL     1       8.652  24.455  19.326  0.00  0.00    -0.029 A 
ATOM     35  C   UNL     1       7.187  24.582  19.803  0.00  0.00    +0.045 C 
ENDROOT
BRANCH  10   9
ATOM      4  C   UNL     1       8.310  29.670  21.188  0.00  0.00    +0.077 A 
ATOM      5  C   UNL     1       8.761  29.162  22.452  0.00  0.00    +0.048 A 
ATOM      6  C   UNL     1       9.277  27.847  22.476  0.00  0.00    +0.116 A 
ATOM      7  N   UNL     1       9.335  27.105  21.316  0.00  0.00    -0.223 NA
ATOM      8  C   UNL     1       8.891  27.624  20.114  0.00  0.00    +0.220 A 
ATOM      9  N   UNL     1       8.947  26.898  18.935  0.00  0.00    -0.283 N 
ATOM     36  H   UNL     1       8.602  27.314  18.070  0.00  0.00    +0.155 HD
ATOM     37  N   UNL     1       8.392  28.877  20.065  0.00  0.00    -0.214 NA
BRANCH   4   3
ATOM      1  C   UNL     1       6.168  32.914  21.618  0.00  0.00    +0.020 A 
ATOM      2  C   UNL     1       6.682  31.582  21.841  0.00  0.00    +0.013 A 
ATOM      3  C   UNL     1       7.742  31.042  21.000  0.00  0.00    +0.019 A 
ATOM     38  C   UNL     1       8.266  31.882  19.934  0.00  0.00    +0.120 A 
ATOM     39  N   UNL     1       7.751  33.160  19.741  0.00  0.00    -0.263 NA
ATOM     40  C   UNL     1       6.729  33.690  20.544  0.00  0.00    +0.111 A 
ENDBRANCH   4   3
ENDBRANCH  10   9
BRANCH  12  13
ATOM     13  N   UNL     1      12.769  23.839  18.048  0.00  0.00    -0.281 N 
ATOM     14  C   UNL     1      13.209  23.231  16.884  0.00  0.00    +0.248 C 
ATOM     30  O   UNL     1      12.489  22.615  16.112  0.00  0.00    -0.270 OA
ATOM     31  H   UNL     1      13.496  24.147  18.694  0.00  0.00    +0.155 HD
BRANCH  14  15
ATOM     15  C   UNL     1      14.660  23.305  16.533  0.00  0.00    +0.037 A 
ATOM     16  C   UNL     1      15.644  23.831  17.482  0.00  0.00    +0.013 A 
ATOM     17  C   UNL     1      17.036  23.908  17.113  0.00  0.00    +0.005 A 
ATOM     18  C   UNL     1      17.451  23.454  15.787  0.00  0.00    -0.033 A 
ATOM     28  C   UNL     1      16.454  22.932  14.868  0.00  0.00    +0.005 A 
ATOM     29  C   UNL     1      15.089  22.856  15.226  0.00  0.00    +0.013 A 
BRANCH  18  19
ATOM     19  C   UNL     1      18.910  23.519  15.300  0.00  0.00    +0.119 C 
BRANCH  19  20
ATOM     20  N   UNL     1      19.326  22.539  14.253  0.00  0.00    -0.302 NA
ATOM     21  C   UNL     1      19.174  21.091  14.728  0.00  0.00    +0.066 C 
ATOM     22  C   UNL     1      19.592  20.079  13.611  0.00  0.00    -0.064 C 
ATOM     23  N   UNL     1      21.033  20.361  13.184  0.00  0.00    +0.379 N 
ATOM     24  C   UNL     1      21.448  19.375  12.176  0.00  0.00    -0.096 C 
ATOM     25  H   UNL     1      21.683  20.225  14.079  0.00  0.00    -0.082 HD
ATOM     26  C   UNL     1      21.193  21.800  12.713  0.00  0.00    -0.064 C 
ATOM     27  C   UNL     1      20.748  22.797  13.819  0.00  0.00    +0.066 C 
ENDBRANCH  19  20
ENDBRANCH  18  19
ENDBRANCH  14  15
ENDBRANCH  12  13
TORSDOF 6
ENDMDL
MODEL 3
REMARK VINA RESULT:      -9.6      4.369     13.161
REMARK  Name = C:\Users\Docking\Desktop\test protocol\1iep_ligandH.pdb
REMARK  8 active torsions:
REMARK  status: ('A' for Active; 'I' for Inactive)
REMARK    1  A    between atoms: _5  and  _11
REMARK    2  A    between atoms: _19  and  _21
REMARK    3  A    between atoms: _22  and  _66
REMARK    4  A    between atoms: _27  and  _30
REMARK    5  A    between atoms: _32  and  _33
REMARK    6  A    between atoms: _38  and  _43
REMARK    7  A    between atoms: _43  and  _46
REMARK    8  A    between atoms: _53  and  _55
REMARK                            x       y       z     vdW  Elec       q    Type
REMARK                         _______ _______ _______ _____ _____    ______ ____
ROOT
ATOM     10  C   UNL     1       9.106  25.644  19.344  0.00  0.00    +0.038 A 
ATOM     11  C   UNL     1      10.354  25.376  18.726  0.00  0.00    +0.047 A 
ATOM     12  C   UNL     1      10.945  24.047  18.769  0.00  0.00    +0.035 A 
ATOM     32  C   UNL     1      10.235  23.014  19.448  0.00  0.00    +0.024 A 
ATOM     33  C   UNL     1       8.966  23.269  20.082  0.00  0.00    +0.007 A 
ATOM     34  C   UNL     1       8.379  24.578  20.045  0.00  0.00    -0.029 A 
ATOM     35  C   UNL     1       7.019  24.796  20.747  0.00  0.00    +0.045 C 
ENDROOT
BRANCH  10   9
ATOM      4  C   UNL     1       8.192  29.952  21.253  0.00  0.00    +0.077 A 
ATOM      5  C   UNL     1       8.779  29.585  22.510  0.00  0.00    +0.048 A 
ATOM      6  C   UNL     1       9.297  28.276  22.626  0.00  0.00    +0.116 A 
ATOM      7  N   UNL     1       9.230  27.407  21.558  0.00  0.00    -0.223 NA
ATOM      8  C   UNL     1       8.656  27.792  20.361  0.00  0.00    +0.220 A 
ATOM      9  N   UNL     1       8.585  26.938  19.271  0.00  0.00    -0.283 N 
ATOM     36  H   UNL     1       8.147  27.258  18.408  0.00  0.00    +0.155 HD
ATOM     37  N   UNL     1       8.152  29.037  20.225  0.00  0.00    -0.214 NA
BRANCH   4   3
ATOM      1  C   UNL     1       5.993  33.180  21.457  0.00  0.00    +0.020 A 
ATOM      2  C   UNL     1       6.525  31.873  21.768  0.00  0.00    +0.013 A 
ATOM      3  C   UNL     1       7.604  31.300  20.974  0.00  0.00    +0.019 A 
ATOM     38  C   UNL     1       8.128  32.082  19.864  0.00  0.00    +0.120 A 
ATOM     39  N   UNL     1       7.595  33.337  19.587  0.00  0.00    -0.263 NA
ATOM     40  C   UNL     1       6.555  33.898  20.343  0.00  0.00    +0.111 A 
ENDBRANCH   4   3
ENDBRANCH  10   9
BRANCH  12  13
ATOM     13  N   UNL     1      12.213  23.718  18.168  0.00  0.00    -0.281 N 
ATOM     14  C   UNL     1      12.445  22.966  17.028  0.00  0.00    +0.248 C 
ATOM     30  O   UNL     1      11.602  22.280  16.469  0.00  0.00    -0.270 OA
ATOM     31  H   UNL     1      13.040  24.083  18.640  0.00  0.00    +0.155 HD
BRANCH  14  15
ATOM     15  C   UNL     1      13.815  22.964  16.430  0.00  0.00    +0.037 A 
ATOM     16  C   UNL     1      14.044  22.513  15.055  0.00  0.00    +0.013 A 
ATOM     17  C   UNL     1      15.378  22.505  14.509  0.00  0.00    +0.005 A 
ATOM     18  C   UNL     1      16.494  22.952  15.339  0.00  0.00    -0.033 A 
ATOM     28  C   UNL     1      16.238  23.399  16.698  0.00  0.00    +0.005 A 
ATOM     29  C   UNL     1      14.932  23.407  17.237  0.00  0.00    +0.013 A 
BRANCH  18  19
ATOM     19  C   UNL     1      17.953  22.958  14.845  0.00  0.00    +0.119 C 
BRANCH  19  20
ATOM     20  N   UNL     1      18.727  24.223  15.016  0.00  0.00    -0.302 NA
ATOM     21  C   UNL     1      19.305  24.726  13.690  0.00  0.00    +0.066 C 
ATOM     22  C   UNL     1      20.093  26.063  13.883  0.00  0.00    -0.064 C 
ATOM     23  N   UNL     1      21.205  25.851  14.913  0.00  0.00    +0.379 N 
ATOM     24  C   UNL     1      21.984  27.090  15.054  0.00  0.00    -0.096 C 
ATOM     25  H   UNL     1      21.888  25.065  14.516  0.00  0.00    -0.082 HD
ATOM     26  C   UNL     1      20.640  25.348  16.234  0.00  0.00    -0.064 C 
ATOM     27  C   UNL     1      19.833  24.036  16.026  0.00  0.00    +0.066 C 
ENDBRANCH  19  20
ENDBRANCH  18  19
ENDBRANCH  14  15
ENDBRANCH  12  13
TORSDOF 6
ENDMDL
MODEL 4
REMARK VINA RESULT:      -9.4     12.922     20.710
REMARK  Name = C:\Users\Docking\Desktop\test protocol\1iep_ligandH.pdb
REMARK  8 active torsions:
REMARK  status: ('A' for Active; 'I' for Inactive)
REMARK    1  A    between atoms: _5  and  _11
REMARK    2  A    between atoms: _19  and  _21
REMARK    3  A    between atoms: _22  and  _66
REMARK    4  A    between atoms: _27  and  _30
REMARK    5  A    between atoms: _32  and  _33
REMARK    6  A    between atoms: _38  and  _43
REMARK    7  A    between atoms: _43  and  _46
REMARK    8  A    between atoms: _53  and  _55
REMARK                            x       y       z     vdW  Elec       q    Type
REMARK                         _______ _______ _______ _____ _____    ______ ____
ROOT
ATOM     10  C   UNL     1      16.226  21.105  14.834  0.00  0.00    +0.038 A 
ATOM     11  C   UNL     1      16.810  19.819  14.705  0.00  0.00    +0.047 A 
ATOM     12  C   UNL     1      16.009  18.663  14.335  0.00  0.00    +0.035 A 
ATOM     32  C   UNL     1      14.616  18.853  14.101  0.00  0.00    +0.024 A 
ATOM     33  C   UNL     1      14.005  20.153  14.228  0.00  0.00    +0.007 A 
ATOM     34  C   UNL     1      14.790  21.297  14.595  0.00  0.00    -0.029 A 
ATOM     35  C   UNL     1      14.081  22.665  14.723  0.00  0.00    +0.045 C 
ENDROOT
BRANCH  10   9
ATOM      4  C   UNL     1      19.289  24.638  13.750  0.00  0.00    +0.077 A 
ATOM      5  C   UNL     1      19.284  24.294  12.357  0.00  0.00    +0.048 A 
ATOM      6  C   UNL     1      18.486  23.198  11.962  0.00  0.00    +0.116 A 
ATOM      7  N   UNL     1      17.751  22.504  12.898  0.00  0.00    -0.223 NA
ATOM      8  C   UNL     1      17.779  22.860  14.234  0.00  0.00    +0.220 A 
ATOM      9  N   UNL     1      17.042  22.181  15.192  0.00  0.00    -0.283 N 
ATOM     36  H   UNL     1      17.095  22.470  16.168  0.00  0.00    +0.155 HD
ATOM     37  N   UNL     1      18.535  23.902  14.637  0.00  0.00    -0.214 NA
BRANCH   4   3
ATOM      1  C   UNL     1      20.325  28.162  15.095  0.00  0.00    +0.020 A 
ATOM      2  C   UNL     1      19.518  27.100  14.539  0.00  0.00    +0.013 A 
ATOM      3  C   UNL     1      20.080  25.773  14.322  0.00  0.00    +0.019 A 
ATOM     38  C   UNL     1      21.473  25.551  14.682  0.00  0.00    +0.120 A 
ATOM     39  N   UNL     1      22.226  26.593  15.214  0.00  0.00    -0.263 NA
ATOM     40  C   UNL     1      21.696  27.875  15.426  0.00  0.00    +0.111 A 
ENDBRANCH   4   3
ENDBRANCH  10   9
BRANCH  12  13
ATOM     13  N   UNL     1      16.545  17.331  14.198  0.00  0.00    -0.281 N 
ATOM     14  C   UNL     1      17.359  16.841  13.189  0.00  0.00    +0.248 C 
ATOM     30  O   UNL     1      17.576  17.418  12.135  0.00  0.00    -0.270 OA
ATOM     31  H   UNL     1      16.294  16.670  14.932  0.00  0.00    +0.155 HD
BRANCH  14  15
ATOM     15  C   UNL     1      18.014  15.510  13.374  0.00  0.00    +0.037 A 
ATOM     16  C   UNL     1      17.703  14.663  14.528  0.00  0.00    +0.013 A 
ATOM     17  C   UNL     1      18.363  13.392  14.690  0.00  0.00    +0.005 A 
ATOM     18  C   UNL     1      19.340  12.959  13.694  0.00  0.00    -0.033 A 
ATOM     28  C   UNL     1      19.625  13.817  12.556  0.00  0.00    +0.005 A 
ATOM     29  C   UNL     1      18.982  15.064  12.394  0.00  0.00    +0.013 A 
BRANCH  18  19
ATOM     19  C   UNL     1      20.107  11.628  13.798  0.00  0.00    +0.119 C 
BRANCH  19  20
ATOM     20  N   UNL     1      21.572  11.703  14.075  0.00  0.00    -0.302 NA
ATOM     21  C   UNL     1      22.366  10.687  13.248  0.00  0.00    +0.066 C 
ATOM     22  C   UNL     1      23.899  10.795  13.534  0.00  0.00    -0.064 C 
ATOM     23  N   UNL     1      24.152  10.592  15.029  0.00  0.00    +0.379 N 
ATOM     24  C   UNL     1      25.598  10.635  15.292  0.00  0.00    -0.096 C 
ATOM     25  H   UNL     1      23.790   9.573  15.298  0.00  0.00    -0.082 HD
ATOM     26  C   UNL     1      23.365  11.597  15.858  0.00  0.00    -0.064 C 
ATOM     27  C   UNL     1      21.845  11.501  15.545  0.00  0.00    +0.066 C 
ENDBRANCH  19  20
ENDBRANCH  18  19
ENDBRANCH  14  15
ENDBRANCH  12  13
TORSDOF 6
ENDMDL
MODEL 5
REMARK VINA RESULT:      -9.4     13.192     20.489
REMARK  Name = C:\Users\Docking\Desktop\test protocol\1iep_ligandH.pdb
REMARK  8 active torsions:
REMARK  status: ('A' for Active; 'I' for Inactive)
REMARK    1  A    between atoms: _5  and  _11
REMARK    2  A    between atoms: _19  and  _21
REMARK    3  A    between atoms: _22  and  _66
REMARK    4  A    between atoms: _27  and  _30
REMARK    5  A    between atoms: _32  and  _33
REMARK    6  A    between atoms: _38  and  _43
REMARK    7  A    between atoms: _43  and  _46
REMARK    8  A    between atoms: _53  and  _55
REMARK                            x       y       z     vdW  Elec       q    Type
REMARK                         _______ _______ _______ _____ _____    ______ ____
ROOT
ATOM     10  C   UNL     1      16.331  20.832  14.729  0.00  0.00    +0.038 A 
ATOM     11  C   UNL     1      16.893  19.531  14.681  0.00  0.00    +0.047 A 
ATOM     12  C   UNL     1      16.089  18.377  14.308  0.00  0.00    +0.035 A 
ATOM     32  C   UNL     1      14.717  18.586  13.985  0.00  0.00    +0.024 A 
ATOM     33  C   UNL     1      14.129  19.902  14.029  0.00  0.00    +0.007 A 
ATOM     34  C   UNL     1      14.916  21.043  14.400  0.00  0.00    -0.029 A 
ATOM     35  C   UNL     1      14.231  22.429  14.436  0.00  0.00    +0.045 C 
ENDROOT
BRANCH  10   9
ATOM      4  C   UNL     1      19.276  24.467  13.655  0.00  0.00    +0.077 A 
ATOM      5  C   UNL     1      19.201  24.191  12.249  0.00  0.00    +0.048 A 
ATOM      6  C   UNL     1      18.399  23.100  11.845  0.00  0.00    +0.116 A 
ATOM      7  N   UNL     1      17.726  22.349  12.784  0.00  0.00    -0.223 NA
ATOM      8  C   UNL     1      17.822  22.641  14.132  0.00  0.00    +0.220 A 
ATOM      9  N   UNL     1      17.148  21.904  15.094  0.00  0.00    -0.283 N 
ATOM     36  H   UNL     1      17.251  22.147  16.079  0.00  0.00    +0.155 HD
ATOM     37  N   UNL     1      18.583  23.677  14.545  0.00  0.00    -0.214 NA
BRANCH   4   3
ATOM      1  C   UNL     1      20.373  27.985  14.966  0.00  0.00    +0.020 A 
ATOM      2  C   UNL     1      19.556  26.939  14.397  0.00  0.00    +0.013 A 
ATOM      3  C   UNL     1      20.079  25.588  14.239  0.00  0.00    +0.019 A 
ATOM     38  C   UNL     1      21.444  25.326  14.671  0.00  0.00    +0.120 A 
ATOM     39  N   UNL     1      22.208  26.354  15.215  0.00  0.00    -0.263 NA
ATOM     40  C   UNL     1      21.715  27.658  15.371  0.00  0.00    +0.111 A 
ENDBRANCH   4   3
ENDBRANCH  10   9
BRANCH  12  13
ATOM     13  N   UNL     1      16.603  17.031  14.250  0.00  0.00    -0.281 N 
ATOM     14  C   UNL     1      17.477  16.492  13.320  0.00  0.00    +0.248 C 
ATOM     30  O   UNL     1      17.785  17.031  12.267  0.00  0.00    -0.270 OA
ATOM     31  H   UNL     1      16.283  16.399  14.984  0.00  0.00    +0.155 HD
BRANCH  14  15
ATOM     15  C   UNL     1      18.086  15.155  13.592  0.00  0.00    +0.037 A 
ATOM     16  C   UNL     1      19.031  14.545  12.653  0.00  0.00    +0.013 A 
ATOM     17  C   UNL     1      19.591  13.246  12.931  0.00  0.00    +0.005 A 
ATOM     18  C   UNL     1      19.208  12.549  14.157  0.00  0.00    -0.033 A 
ATOM     28  C   UNL     1      18.273  13.180  15.074  0.00  0.00    +0.005 A 
ATOM     29  C   UNL     1      17.721  14.452  14.803  0.00  0.00    +0.013 A 
BRANCH  18  19
ATOM     19  C   UNL     1      19.740  11.151  14.524  0.00  0.00    +0.119 C 
BRANCH  19  20
ATOM     20  N   UNL     1      21.068  11.081  15.204  0.00  0.00    -0.302 NA
ATOM     21  C   UNL     1      21.102  11.919  16.485  0.00  0.00    +0.066 C 
ATOM     22  C   UNL     1      22.491  11.817  17.195  0.00  0.00    -0.064 C 
ATOM     23  N   UNL     1      23.589  12.262  16.227  0.00  0.00    +0.379 N 
ATOM     24  C   UNL     1      24.891  12.222  16.910  0.00  0.00    -0.096 C 
ATOM     25  H   UNL     1      23.385  13.322  15.949  0.00  0.00    -0.082 HD
ATOM     26  C   UNL     1      23.560  11.435  14.949  0.00  0.00    -0.064 C 
ATOM     27  C   UNL     1      22.166  11.520  14.267  0.00  0.00    +0.066 C 
ENDBRANCH  19  20
ENDBRANCH  18  19
ENDBRANCH  14  15
ENDBRANCH  12  13
TORSDOF 6
ENDMDL
