MODEL 1
REMARK VINA RESULT:      -9.3      0.000      0.000
REMARK  Name = C:\Users\Docking\Desktop\test protocol\1iep_ligandH.pdb
REMARK  8 active torsions:
REMARK  status: ('A' for Active; 'I' for Inactive)
REMARK    1  A    between atoms: _5  and  _11
REMARK    2  A    between atoms: _19  and  _21
REMARK    3  A    between atoms: _22  and  _66
REMARK    4  A    between atoms: _27  and  _30
REMARK    5  A    between atoms: _32  and  _33
REMARK    6  A    between atoms: _38  and  _43
REMARK    7  A    between atoms: _43  and  _46
REMARK    8  A    between atoms: _53  and  _55
REMARK                            x       y       z     vdW  Elec       q    Type
REMARK                         _______ _______ _______ _____ _____    ______ ____
ROOT
ATOM     10  C   UNL     1     -30.173 -15.292   5.636  0.00  0.00    +0.038 A 
ATOM     11  C   UNL     1     -29.627 -14.329   6.523  0.00  0.00    +0.047 A 
ATOM     12  C   UNL     1     -28.243 -13.897   6.406  0.00  0.00    +0.035 A 
ATOM     32  C   UNL     1     -27.444 -14.464   5.371  0.00  0.00    +0.024 A 
ATOM     33  C   UNL     1     -27.982 -15.445   4.461  0.00  0.00    +0.007 A 
ATOM     34  C   UNL     1     -29.346 -15.877   4.574  0.00  0.00    -0.029 A 
ATOM     35  C   UNL     1     -29.868 -16.936   3.575  0.00  0.00    +0.045 C 
ENDROOT
BRANCH  10   9
ATOM      4  C   UNL     1     -33.608 -17.922   7.715  0.00  0.00    +0.077 A 
ATOM      5  C   UNL     1     -32.660 -18.619   8.536  0.00  0.00    +0.048 A 
ATOM      6  C   UNL     1     -31.298 -18.276   8.387  0.00  0.00    +0.116 A 
ATOM      7  N   UNL     1     -30.922 -17.307   7.483  0.00  0.00    -0.223 NA
ATOM      8  C   UNL     1     -31.862 -16.655   6.705  0.00  0.00    +0.220 A 
ATOM      9  N   UNL     1     -31.508 -15.671   5.795  0.00  0.00    -0.283 N 
ATOM     36  H   UNL     1     -32.230 -15.219   5.235  0.00  0.00    +0.155 HD
ATOM     37  N   UNL     1     -33.169 -16.965   6.827  0.00  0.00    -0.214 NA
BRANCH   4   3
ATOM      1  C   UNL     1     -37.379 -18.197   6.711  0.00  0.00    +0.020 A 
ATOM      2  C   UNL     1     -35.960 -17.942   6.616  0.00  0.00    +0.013 A 
ATOM      3  C   UNL     1     -35.084 -18.169   7.759  0.00  0.00    +0.019 A 
ATOM     38  C   UNL     1     -35.680 -18.661   8.992  0.00  0.00    +0.120 A 
ATOM     39  N   UNL     1     -37.050 -18.897   9.054  0.00  0.00    -0.263 NA
ATOM     40  C   UNL     1     -37.903 -18.680   7.961  0.00  0.00    +0.111 A 
ENDBRANCH   4   3
ENDBRANCH  10   9
BRANCH  12  13
ATOM     13  N   UNL     1     -27.632 -12.928   7.282  0.00  0.00    -0.281 N 
ATOM     14  C   UNL     1     -27.047 -13.149   8.518  0.00  0.00    +0.248 C 
ATOM     30  O   UNL     1     -27.152 -14.185   9.158  0.00  0.00    -0.270 OA
ATOM     31  H   UNL     1     -27.630 -11.964   6.951  0.00  0.00    +0.155 HD
BRANCH  14  15
ATOM     15  C   UNL     1     -26.242 -12.054   9.141  0.00  0.00    +0.037 A 
ATOM     16  C   UNL     1     -26.087 -10.755   8.482  0.00  0.00    +0.013 A 
ATOM     17  C   UNL     1     -25.290  -9.723   9.096  0.00  0.00    +0.005 A 
ATOM     18  C   UNL     1     -24.643  -9.986  10.379  0.00  0.00    -0.033 A 
ATOM     28  C   UNL     1     -24.818 -11.281  11.014  0.00  0.00    +0.005 A 
ATOM     29  C   UNL     1     -25.597 -12.296  10.414  0.00  0.00    +0.013 A 
BRANCH  18  19
ATOM     19  C   UNL     1     -23.758  -8.950  11.098  0.00  0.00    +0.119 C 
BRANCH  19  20
ATOM     20  N   UNL     1     -22.899  -9.442  12.216  0.00  0.00    -0.302 NA
ATOM     21  C   UNL     1     -23.327  -8.862  13.567  0.00  0.00    +0.066 C 
ATOM     22  C   UNL     1     -22.433  -9.405  14.728  0.00  0.00    -0.064 C 
ATOM     23  N   UNL     1     -20.968  -9.076  14.437  0.00  0.00    +0.379 N 
ATOM     24  C   UNL     1     -20.130  -9.534  15.555  0.00  0.00    -0.096 C 
ATOM     25  H   UNL     1     -20.876  -7.966  14.378  0.00  0.00    -0.082 HD
ATOM     26  C   UNL     1     -20.535  -9.647  13.094  0.00  0.00    -0.064 C 
ATOM     27  C   UNL     1     -21.449  -9.124  11.951  0.00  0.00    +0.066 C 
ENDBRANCH  19  20
ENDBRANCH  18  19
ENDBRANCH  14  15
ENDBRANCH  12  13
TORSDOF 6
ENDMDL
MODEL 2
REMARK VINA RESULT:      -9.2      4.701      8.344
REMARK  Name = C:\Users\Docking\Desktop\test protocol\1iep_ligandH.pdb
REMARK  8 active torsions:
REMARK  status: ('A' for Active; 'I' for Inactive)
REMARK    1  A    between atoms: _5  and  _11
REMARK    2  A    between atoms: _19  and  _21
REMARK    3  A    between atoms: _22  and  _66
REMARK    4  A    between atoms: _27  and  _30
REMARK    5  A    between atoms: _32  and  _33
REMARK    6  A    between atoms: _38  and  _43
REMARK    7  A    between atoms: _43  and  _46
REMARK    8  A    between atoms: _53  and  _55
REMARK                            x       y       z     vdW  Elec       q    Type
REMARK                         _______ _______ _______ _____ _____    ______ ____
ROOT
ATOM     10  C   UNL     1     -29.659 -14.680   8.330  0.00  0.00    +0.038 A 
ATOM     11  C   UNL     1     -28.910 -14.607   7.128  0.00  0.00    +0.047 A 
ATOM     12  C   UNL     1     -27.511 -14.208   7.136  0.00  0.00    +0.035 A 
ATOM     32  C   UNL     1     -26.906 -13.892   8.387  0.00  0.00    +0.024 A 
ATOM     33  C   UNL     1     -27.652 -13.960   9.618  0.00  0.00    +0.007 A 
ATOM     34  C   UNL     1     -29.033 -14.350   9.617  0.00  0.00    -0.029 A 
ATOM     35  C   UNL     1     -29.786 -14.399  10.967  0.00  0.00    +0.045 C 
ENDROOT
BRANCH  10   9
ATOM      4  C   UNL     1     -33.102 -18.024   8.377  0.00  0.00    +0.077 A 
ATOM      5  C   UNL     1     -32.149 -19.087   8.516  0.00  0.00    +0.048 A 
ATOM      6  C   UNL     1     -30.782 -18.732   8.565  0.00  0.00    +0.116 A 
ATOM      7  N   UNL     1     -30.408 -17.409   8.480  0.00  0.00    -0.223 NA
ATOM      8  C   UNL     1     -31.352 -16.408   8.344  0.00  0.00    +0.220 A 
ATOM      9  N   UNL     1     -30.999 -15.069   8.265  0.00  0.00    -0.283 N 
ATOM     36  H   UNL     1     -31.725 -14.362   8.158  0.00  0.00    +0.155 HD
ATOM     37  N   UNL     1     -32.664 -16.721   8.294  0.00  0.00    -0.214 NA
BRANCH   4   3
ATOM      1  C   UNL     1     -36.808 -18.136   7.131  0.00  0.00    +0.020 A 
ATOM      2  C   UNL     1     -35.381 -17.908   7.141  0.00  0.00    +0.013 A 
ATOM      3  C   UNL     1     -34.582 -18.239   8.314  0.00  0.00    +0.019 A 
ATOM     38  C   UNL     1     -35.262 -18.804   9.469  0.00  0.00    +0.120 A 
ATOM     39  N   UNL     1     -36.638 -19.011   9.432  0.00  0.00    -0.263 NA
ATOM     40  C   UNL     1     -37.417 -18.695   8.309  0.00  0.00    +0.111 A 
ENDBRANCH   4   3
ENDBRANCH  10   9
BRANCH  12  13
ATOM     13  N   UNL     1     -26.703 -14.108   5.946  0.00  0.00    -0.281 N 
ATOM     14  C   UNL     1     -26.341 -12.963   5.256  0.00  0.00    +0.248 C 
ATOM     30  O   UNL     1     -26.836 -11.861   5.437  0.00  0.00    -0.270 OA
ATOM     31  H   UNL     1     -26.356 -14.989   5.566  0.00  0.00    +0.155 HD
BRANCH  14  15
ATOM     15  C   UNL     1     -25.285 -13.059   4.202  0.00  0.00    +0.037 A 
ATOM     16  C   UNL     1     -24.974 -11.921   3.333  0.00  0.00    +0.013 A 
ATOM     17  C   UNL     1     -23.962 -12.045   2.313  0.00  0.00    +0.005 A 
ATOM     18  C   UNL     1     -23.253 -13.313   2.159  0.00  0.00    -0.033 A 
ATOM     28  C   UNL     1     -23.578 -14.424   3.039  0.00  0.00    +0.005 A 
ATOM     29  C   UNL     1     -24.569 -14.306   4.038  0.00  0.00    +0.013 A 
BRANCH  18  19
ATOM     19  C   UNL     1     -22.174 -13.542   1.084  0.00  0.00    +0.119 C 
BRANCH  19  20
ATOM     20  N   UNL     1     -22.583 -14.278  -0.150  0.00  0.00    -0.302 NA
ATOM     21  C   UNL     1     -22.479 -15.796   0.025  0.00  0.00    +0.066 C 
ATOM     22  C   UNL     1     -22.933 -16.550  -1.267  0.00  0.00    -0.064 C 
ATOM     23  N   UNL     1     -22.084 -16.082  -2.451  0.00  0.00    +0.379 N 
ATOM     24  C   UNL     1     -22.469 -16.831  -3.656  0.00  0.00    -0.096 C 
ATOM     25  H   UNL     1     -21.021 -16.329  -2.224  0.00  0.00    -0.082 HD
ATOM     26  C   UNL     1     -22.179 -14.573  -2.630  0.00  0.00    -0.064 C 
ATOM     27  C   UNL     1     -21.755 -13.834  -1.331  0.00  0.00    +0.066 C 
ENDBRANCH  19  20
ENDBRANCH  18  19
ENDBRANCH  14  15
ENDBRANCH  12  13
TORSDOF 6
ENDMDL
MODEL 3
REMARK VINA RESULT:      -9.1      3.838     12.602
REMARK  Name = C:\Users\Docking\Desktop\test protocol\1iep_ligandH.pdb
REMARK  8 active torsions:
REMARK  status: ('A' for Active; 'I' for Inactive)
REMARK    1  A    between atoms: _5  and  _11
REMARK    2  A    between atoms: _19  and  _21
REMARK    3  A    between atoms: _22  and  _66
REMARK    4  A    between atoms: _27  and  _30
REMARK    5  A    between atoms: _32  and  _33
REMARK    6  A    between atoms: _38  and  _43
REMARK    7  A    between atoms: _43  and  _46
REMARK    8  A    between atoms: _53  and  _55
REMARK                            x       y       z     vdW  Elec       q    Type
REMARK                         _______ _______ _______ _____ _____    ______ ____
ROOT
ATOM     10  C   UNL     1     -24.998 -11.798   5.377  0.00  0.00    +0.038 A 
ATOM     11  C   UNL     1     -25.655 -12.553   6.382  0.00  0.00    +0.047 A 
ATOM     12  C   UNL     1     -26.672 -13.536   6.040  0.00  0.00    +0.035 A 
ATOM     32  C   UNL     1     -26.993 -13.725   4.664  0.00  0.00    +0.024 A 
ATOM     33  C   UNL     1     -26.335 -12.965   3.630  0.00  0.00    +0.007 A 
ATOM     34  C   UNL     1     -25.333 -11.993   3.962  0.00  0.00    -0.029 A 
ATOM     35  C   UNL     1     -24.665 -11.203   2.813  0.00  0.00    +0.045 C 
ENDROOT
BRANCH  10   9
ATOM      4  C   UNL     1     -23.648  -7.370   6.644  0.00  0.00    +0.077 A 
ATOM      5  C   UNL     1     -24.981  -6.859   6.501  0.00  0.00    +0.048 A 
ATOM      6  C   UNL     1     -25.984  -7.767   6.092  0.00  0.00    +0.116 A 
ATOM      7  N   UNL     1     -25.666  -9.085   5.849  0.00  0.00    -0.223 NA
ATOM      8  C   UNL     1     -24.370  -9.545   5.994  0.00  0.00    +0.220 A 
ATOM      9  N   UNL     1     -24.029 -10.869   5.762  0.00  0.00    -0.283 N 
ATOM     36  H   UNL     1     -23.060 -11.167   5.874  0.00  0.00    +0.155 HD
ATOM     37  N   UNL     1     -23.394  -8.697   6.382  0.00  0.00    -0.214 NA
BRANCH   4   3
ATOM      1  C   UNL     1     -20.226  -5.475   6.675  0.00  0.00    +0.020 A 
ATOM      2  C   UNL     1     -21.327  -6.289   6.215  0.00  0.00    +0.013 A 
ATOM      3  C   UNL     1     -22.481  -6.535   7.071  0.00  0.00    +0.019 A 
ATOM     38  C   UNL     1     -22.490  -5.936   8.397  0.00  0.00    +0.120 A 
ATOM     39  N   UNL     1     -21.415  -5.158   8.814  0.00  0.00    -0.263 NA
ATOM     40  C   UNL     1     -20.298  -4.916   7.999  0.00  0.00    +0.111 A 
ENDBRANCH   4   3
ENDBRANCH  10   9
BRANCH  12  13
ATOM     13  N   UNL     1     -27.379 -14.326   7.017  0.00  0.00    -0.281 N 
ATOM     14  C   UNL     1     -28.262 -13.887   7.990  0.00  0.00    +0.248 C 
ATOM     30  O   UNL     1     -28.414 -12.717   8.308  0.00  0.00    -0.270 OA
ATOM     31  H   UNL     1     -27.208 -15.331   6.988  0.00  0.00    +0.155 HD
BRANCH  14  15
ATOM     15  C   UNL     1     -29.084 -14.895   8.727  0.00  0.00    +0.037 A 
ATOM     16  C   UNL     1     -29.333 -16.227   8.170  0.00  0.00    +0.013 A 
ATOM     17  C   UNL     1     -30.143 -17.174   8.894  0.00  0.00    +0.005 A 
ATOM     18  C   UNL     1     -30.709 -16.792  10.185  0.00  0.00    -0.033 A 
ATOM     28  C   UNL     1     -30.442 -15.466  10.717  0.00  0.00    +0.005 A 
ATOM     29  C   UNL     1     -29.649 -14.535  10.010  0.00  0.00    +0.013 A 
BRANCH  18  19
ATOM     19  C   UNL     1     -31.603 -17.731  11.017  0.00  0.00    +0.119 C 
BRANCH  19  20
ATOM     20  N   UNL     1     -33.053 -17.785  10.664  0.00  0.00    -0.302 NA
ATOM     21  C   UNL     1     -33.600 -19.215  10.701  0.00  0.00    +0.066 C 
ATOM     22  C   UNL     1     -35.124 -19.251  10.351  0.00  0.00    -0.064 C 
ATOM     23  N   UNL     1     -35.342 -18.623   8.973  0.00  0.00    +0.379 N 
ATOM     24  C   UNL     1     -36.766 -18.708   8.616  0.00  0.00    -0.096 C 
ATOM     25  H   UNL     1     -34.771 -19.229   8.232  0.00  0.00    -0.082 HD
ATOM     26  C   UNL     1     -34.799 -17.203   8.926  0.00  0.00    -0.064 C 
ATOM     27  C   UNL     1     -33.291 -17.175   9.305  0.00  0.00    +0.066 C 
ENDBRANCH  19  20
ENDBRANCH  18  19
ENDBRANCH  14  15
ENDBRANCH  12  13
TORSDOF 6
ENDMDL
MODEL 4
REMARK VINA RESULT:      -9.0      4.841      6.883
REMARK  Name = C:\Users\Docking\Desktop\test protocol\1iep_ligandH.pdb
REMARK  8 active torsions:
REMARK  status: ('A' for Active; 'I' for Inactive)
REMARK    1  A    between atoms: _5  and  _11
REMARK    2  A    between atoms: _19  and  _21
REMARK    3  A    between atoms: _22  and  _66
REMARK    4  A    between atoms: _27  and  _30
REMARK    5  A    between atoms: _32  and  _33
REMARK    6  A    between atoms: _38  and  _43
REMARK    7  A    between atoms: _43  and  _46
REMARK    8  A    between atoms: _53  and  _55
REMARK                            x       y       z     vdW  Elec       q    Type
REMARK                         _______ _______ _______ _____ _____    ______ ____
ROOT
ATOM     10  C   UNL     1     -30.044 -14.311   8.806  0.00  0.00    +0.038 A 
ATOM     11  C   UNL     1     -29.222 -13.759   7.791  0.00  0.00    +0.047 A 
ATOM     12  C   UNL     1     -27.858 -13.340   8.071  0.00  0.00    +0.035 A 
ATOM     32  C   UNL     1     -27.361 -13.500   9.398  0.00  0.00    +0.024 A 
ATOM     33  C   UNL     1     -28.183 -14.059  10.442  0.00  0.00    +0.007 A 
ATOM     34  C   UNL     1     -29.531 -14.472  10.172  0.00  0.00    -0.029 A 
ATOM     35  C   UNL     1     -30.368 -15.058  11.332  0.00  0.00    +0.045 C 
ENDROOT
BRANCH  10   9
ATOM      4  C   UNL     1     -33.253 -17.564   7.338  0.00  0.00    +0.077 A 
ATOM      5  C   UNL     1     -32.246 -18.573   7.179  0.00  0.00    +0.048 A 
ATOM      6  C   UNL     1     -30.913 -18.213   7.479  0.00  0.00    +0.116 A 
ATOM      7  N   UNL     1     -30.621 -16.935   7.906  0.00  0.00    -0.223 NA
ATOM      8  C   UNL     1     -31.616 -15.985   8.046  0.00  0.00    +0.220 A 
ATOM      9  N   UNL     1     -31.346 -14.697   8.481  0.00  0.00    -0.283 N 
ATOM     36  H   UNL     1     -32.107 -14.023   8.565  0.00  0.00    +0.155 HD
ATOM     37  N   UNL     1     -32.897 -16.304   7.765  0.00  0.00    -0.214 NA
BRANCH   4   3
ATOM      1  C   UNL     1     -37.034 -18.473   7.761  0.00  0.00    +0.020 A 
ATOM      2  C   UNL     1     -35.639 -18.269   8.077  0.00  0.00    +0.013 A 
ATOM      3  C   UNL     1     -34.707 -17.793   7.063  0.00  0.00    +0.019 A 
ATOM     38  C   UNL     1     -35.223 -17.530   5.728  0.00  0.00    +0.120 A 
ATOM     39  N   UNL     1     -36.570 -17.737   5.452  0.00  0.00    -0.263 NA
ATOM     40  C   UNL     1     -37.476 -18.196   6.419  0.00  0.00    +0.111 A 
ENDBRANCH   4   3
ENDBRANCH  10   9
BRANCH  12  13
ATOM     13  N   UNL     1     -26.980 -12.765   7.082  0.00  0.00    -0.281 N 
ATOM     14  C   UNL     1     -25.997 -13.403   6.343  0.00  0.00    +0.248 C 
ATOM     30  O   UNL     1     -25.578 -14.527   6.574  0.00  0.00    -0.270 OA
ATOM     31  H   UNL     1     -27.097 -11.767   6.907  0.00  0.00    +0.155 HD
BRANCH  14  15
ATOM     15  C   UNL     1     -25.382 -12.682   5.187  0.00  0.00    +0.037 A 
ATOM     16  C   UNL     1     -25.381 -11.218   5.118  0.00  0.00    +0.013 A 
ATOM     17  C   UNL     1     -24.796 -10.548   3.984  0.00  0.00    +0.005 A 
ATOM     18  C   UNL     1     -24.203 -11.343   2.910  0.00  0.00    -0.033 A 
ATOM     28  C   UNL     1     -24.212 -12.793   3.007  0.00  0.00    +0.005 A 
ATOM     29  C   UNL     1     -24.787 -13.453   4.117  0.00  0.00    +0.013 A 
BRANCH  18  19
ATOM     19  C   UNL     1     -23.575 -10.713   1.653  0.00  0.00    +0.119 C 
BRANCH  19  20
ATOM     20  N   UNL     1     -22.163 -11.083   1.335  0.00  0.00    -0.302 NA
ATOM     21  C   UNL     1     -21.165 -10.402   2.276  0.00  0.00    +0.066 C 
ATOM     22  C   UNL     1     -19.695 -10.818   1.944  0.00  0.00    -0.064 C 
ATOM     23  N   UNL     1     -19.387 -10.473   0.485  0.00  0.00    +0.379 N 
ATOM     24  C   UNL     1     -17.988 -10.810   0.186  0.00  0.00    -0.096 C 
ATOM     25  H   UNL     1     -19.503  -9.371   0.368  0.00  0.00    -0.082 HD
ATOM     26  C   UNL     1     -20.377 -11.144  -0.457  0.00  0.00    -0.064 C 
ATOM     27  C   UNL     1     -21.837 -10.747  -0.099  0.00  0.00    +0.066 C 
ENDBRANCH  19  20
ENDBRANCH  18  19
ENDBRANCH  14  15
ENDBRANCH  12  13
TORSDOF 6
ENDMDL
MODEL 5
REMARK VINA RESULT:      -9.0      4.540      7.366
REMARK  Name = C:\Users\Docking\Desktop\test protocol\1iep_ligandH.pdb
REMARK  8 active torsions:
REMARK  status: ('A' for Active; 'I' for Inactive)
REMARK    1  A    between atoms: _5  and  _11
REMARK    2  A    between atoms: _19  and  _21
REMARK    3  A    between atoms: _22  and  _66
REMARK    4  A    between atoms: _27  and  _30
REMARK    5  A    between atoms: _32  and  _33
REMARK    6  A    between atoms: _38  and  _43
REMARK    7  A    between atoms: _43  and  _46
REMARK    8  A    between atoms: _53  and  _55
REMARK                            x       y       z     vdW  Elec       q    Type
REMARK                         _______ _______ _______ _____ _____    ______ ____
ROOT
ATOM     10  C   UNL     1     -29.733 -14.218   8.494  0.00  0.00    +0.038 A 
ATOM     11  C   UNL     1     -28.929 -13.841   7.388  0.00  0.00    +0.047 A 
ATOM     12  C   UNL     1     -27.546 -13.428   7.569  0.00  0.00    +0.035 A 
ATOM     32  C   UNL     1     -27.012 -13.414   8.891  0.00  0.00    +0.024 A 
ATOM     33  C   UNL     1     -27.816 -13.793  10.027  0.00  0.00    +0.007 A 
ATOM     34  C   UNL     1     -29.181 -14.199   9.855  0.00  0.00    -0.029 A 
ATOM     35  C   UNL     1     -29.997 -14.588  11.109  0.00  0.00    +0.045 C 
ENDROOT
BRANCH  10   9
ATOM      4  C   UNL     1     -33.064 -17.538   7.535  0.00  0.00    +0.077 A 
ATOM      5  C   UNL     1     -32.085 -18.584   7.462  0.00  0.00    +0.048 A 
ATOM      6  C   UNL     1     -30.734 -18.225   7.670  0.00  0.00    +0.116 A 
ATOM      7  N   UNL     1     -30.399 -16.914   7.932  0.00  0.00    -0.223 NA
ATOM      8  C   UNL     1     -31.368 -15.929   7.994  0.00  0.00    +0.220 A 
ATOM      9  N   UNL     1     -31.054 -14.606   8.263  0.00  0.00    -0.283 N 
ATOM     36  H   UNL     1     -31.797 -13.908   8.293  0.00  0.00    +0.155 HD
ATOM     37  N   UNL     1     -32.664 -16.246   7.797  0.00  0.00    -0.214 NA
BRANCH   4   3
ATOM      1  C   UNL     1     -36.800 -18.530   8.132  0.00  0.00    +0.020 A 
ATOM      2  C   UNL     1     -35.388 -18.337   8.370  0.00  0.00    +0.013 A 
ATOM      3  C   UNL     1     -34.531 -17.760   7.341  0.00  0.00    +0.019 A 
ATOM     38  C   UNL     1     -35.140 -17.386   6.073  0.00  0.00    +0.120 A 
ATOM     39  N   UNL     1     -36.502 -17.585   5.872  0.00  0.00    -0.263 NA
ATOM     40  C   UNL     1     -37.336 -18.141   6.854  0.00  0.00    +0.111 A 
ENDBRANCH   4   3
ENDBRANCH  10   9
BRANCH  12  13
ATOM     13  N   UNL     1     -26.684 -13.027   6.485  0.00  0.00    -0.281 N 
ATOM     14  C   UNL     1     -26.553 -11.768   5.922  0.00  0.00    +0.248 C 
ATOM     30  O   UNL     1     -27.318 -10.837   6.127  0.00  0.00    -0.270 OA
ATOM     31  H   UNL     1     -26.100 -13.760   6.083  0.00  0.00    +0.155 HD
BRANCH  14  15
ATOM     15  C   UNL     1     -25.417 -11.510   4.987  0.00  0.00    +0.037 A 
ATOM     16  C   UNL     1     -25.653 -11.138   3.589  0.00  0.00    +0.013 A 
ATOM     17  C   UNL     1     -24.538 -10.911   2.703  0.00  0.00    +0.005 A 
ATOM     18  C   UNL     1     -23.177 -11.054   3.213  0.00  0.00    -0.033 A 
ATOM     28  C   UNL     1     -22.972 -11.419   4.605  0.00  0.00    +0.005 A 
ATOM     29  C   UNL     1     -24.061 -11.643   5.477  0.00  0.00    +0.013 A 
BRANCH  18  19
ATOM     19  C   UNL     1     -21.929 -10.852   2.334  0.00  0.00    +0.119 C 
BRANCH  19  20
ATOM     20  N   UNL     1     -21.639 -11.898   1.308  0.00  0.00    -0.302 NA
ATOM     21  C   UNL     1     -21.994 -11.428  -0.106  0.00  0.00    +0.066 C 
ATOM     22  C   UNL     1     -21.663 -12.526  -1.170  0.00  0.00    -0.064 C 
ATOM     23  N   UNL     1     -22.414 -13.812  -0.821  0.00  0.00    +0.379 N 
ATOM     24  C   UNL     1     -22.151 -14.828  -1.851  0.00  0.00    -0.096 C 
ATOM     25  H   UNL     1     -23.504 -13.583  -0.843  0.00  0.00    -0.082 HD
ATOM     26  C   UNL     1     -22.069 -14.284   0.584  0.00  0.00    -0.064 C 
ATOM     27  C   UNL     1     -22.373 -13.176   1.630  0.00  0.00    +0.066 C 
ENDBRANCH  19  20
ENDBRANCH  18  19
ENDBRANCH  14  15
ENDBRANCH  12  13
TORSDOF 6
ENDMDL
