MODEL 1
REMARK VINA RESULT:      -8.7      0.000      0.000
REMARK  Name = C:\Users\Docking\Desktop\test protocol\1iep_ligandH.pdb
REMARK  8 active torsions:
REMARK  status: ('A' for Active; 'I' for Inactive)
REMARK    1  A    between atoms: _5  and  _11
REMARK    2  A    between atoms: _19  and  _21
REMARK    3  A    between atoms: _22  and  _66
REMARK    4  A    between atoms: _27  and  _30
REMARK    5  A    between atoms: _32  and  _33
REMARK    6  A    between atoms: _38  and  _43
REMARK    7  A    between atoms: _43  and  _46
REMARK    8  A    between atoms: _53  and  _55
REMARK                            x       y       z     vdW  Elec       q    Type
REMARK                         _______ _______ _______ _____ _____    ______ ____
ROOT
ATOM     10  C   UNL     1      16.257 -11.900 -19.078  0.00  0.00    +0.038 A 
ATOM     11  C   UNL     1      15.641 -10.894 -19.867  0.00  0.00    +0.047 A 
ATOM     12  C   UNL     1      15.998 -10.711 -21.265  0.00  0.00    +0.035 A 
ATOM     32  C   UNL     1      16.983 -11.572 -21.829  0.00  0.00    +0.024 A 
ATOM     33  C   UNL     1      17.620 -12.599 -21.042  0.00  0.00    +0.007 A 
ATOM     34  C   UNL     1      17.274 -12.783 -19.662  0.00  0.00    -0.029 A 
ATOM     35  C   UNL     1      17.993 -13.896 -18.864  0.00  0.00    +0.045 C 
ENDROOT
BRANCH  10   9
ATOM      4  C   UNL     1      16.656 -10.762 -14.433  0.00  0.00    +0.077 A 
ATOM      5  C   UNL     1      17.731  -9.848 -14.688  0.00  0.00    +0.048 A 
ATOM      6  C   UNL     1      18.157  -9.705 -16.028  0.00  0.00    +0.116 A 
ATOM      7  N   UNL     1      17.545 -10.427 -17.029  0.00  0.00    -0.223 NA
ATOM      8  C   UNL     1      16.511 -11.302 -16.748  0.00  0.00    +0.220 A 
ATOM      9  N   UNL     1      15.876 -12.032 -17.741  0.00  0.00    -0.283 N 
ATOM     36  H   UNL     1      15.123 -12.672 -17.492  0.00  0.00    +0.155 HD
ATOM     37  N   UNL     1      16.088 -11.457 -15.477  0.00  0.00    -0.214 NA
BRANCH   4   3
ATOM      1  C   UNL     1      14.186 -11.535 -11.499  0.00  0.00    +0.020 A 
ATOM      2  C   UNL     1      14.679 -11.292 -12.835  0.00  0.00    +0.013 A 
ATOM      3  C   UNL     1      16.092 -11.020 -13.070  0.00  0.00    +0.019 A 
ATOM     38  C   UNL     1      16.986 -11.003 -11.922  0.00  0.00    +0.120 A 
ATOM     39  N   UNL     1      16.483 -11.239 -10.647  0.00  0.00    -0.263 NA
ATOM     40  C   UNL     1      15.125 -11.500 -10.409  0.00  0.00    +0.111 A 
ENDBRANCH   4   3
ENDBRANCH  10   9
BRANCH  12  13
ATOM     13  N   UNL     1      15.413  -9.702 -22.112  0.00  0.00    -0.281 N 
ATOM     14  C   UNL     1      16.066  -8.771 -22.904  0.00  0.00    +0.248 C 
ATOM     30  O   UNL     1      17.261  -8.525 -22.837  0.00  0.00    -0.270 OA
ATOM     31  H   UNL     1      14.393  -9.670 -22.131  0.00  0.00    +0.155 HD
BRANCH  14  15
ATOM     15  C   UNL     1      15.274  -7.991 -23.903  0.00  0.00    +0.037 A 
ATOM     16  C   UNL     1      13.976  -8.469 -24.385  0.00  0.00    +0.013 A 
ATOM     17  C   UNL     1      13.241  -7.705 -25.362  0.00  0.00    +0.005 A 
ATOM     18  C   UNL     1      13.803  -6.453 -25.862  0.00  0.00    -0.033 A 
ATOM     28  C   UNL     1      15.090  -5.999 -25.362  0.00  0.00    +0.005 A 
ATOM     29  C   UNL     1      15.814  -6.745 -24.406  0.00  0.00    +0.013 A 
BRANCH  18  19
ATOM     19  C   UNL     1      13.098  -5.584 -26.920  0.00  0.00    +0.119 C 
BRANCH  19  20
ATOM     20  N   UNL     1      13.154  -6.052 -28.337  0.00  0.00    -0.302 NA
ATOM     21  C   UNL     1      11.884  -6.804 -28.745  0.00  0.00    +0.066 C 
ATOM     22  C   UNL     1      11.951  -7.267 -30.237  0.00  0.00    -0.064 C 
ATOM     23  N   UNL     1      13.188  -8.143 -30.441  0.00  0.00    +0.379 N 
ATOM     24  C   UNL     1      13.222  -8.627 -31.829  0.00  0.00    -0.096 C 
ATOM     25  H   UNL     1      13.087  -9.031 -29.775  0.00  0.00    -0.082 HD
ATOM     26  C   UNL     1      14.455  -7.404 -30.036  0.00  0.00    -0.064 C 
ATOM     27  C   UNL     1      14.367  -6.922 -28.561  0.00  0.00    +0.066 C 
ENDBRANCH  19  20
ENDBRANCH  18  19
ENDBRANCH  14  15
ENDBRANCH  12  13
TORSDOF 6
ENDMDL
MODEL 2
REMARK VINA RESULT:      -8.5      1.878      2.995
REMARK  Name = C:\Users\Docking\Desktop\test protocol\1iep_ligandH.pdb
REMARK  8 active torsions:
REMARK  status: ('A' for Active; 'I' for Inactive)
REMARK    1  A    between atoms: _5  and  _11
REMARK    2  A    between atoms: _19  and  _21
REMARK    3  A    between atoms: _22  and  _66
REMARK    4  A    between atoms: _27  and  _30
REMARK    5  A    between atoms: _32  and  _33
REMARK    6  A    between atoms: _38  and  _43
REMARK    7  A    between atoms: _43  and  _46
REMARK    8  A    between atoms: _53  and  _55
REMARK                            x       y       z     vdW  Elec       q    Type
REMARK                         _______ _______ _______ _____ _____    ______ ____
ROOT
ATOM     10  C   UNL     1      16.376 -12.185 -18.738  0.00  0.00    +0.038 A 
ATOM     11  C   UNL     1      15.814 -11.145 -19.522  0.00  0.00    +0.047 A 
ATOM     12  C   UNL     1      16.152 -10.996 -20.929  0.00  0.00    +0.035 A 
ATOM     32  C   UNL     1      17.066 -11.926 -21.506  0.00  0.00    +0.024 A 
ATOM     33  C   UNL     1      17.648 -12.988 -20.724  0.00  0.00    +0.007 A 
ATOM     34  C   UNL     1      17.319 -13.138 -19.335  0.00  0.00    -0.029 A 
ATOM     35  C   UNL     1      17.979 -14.291 -18.543  0.00  0.00    +0.045 C 
ENDROOT
BRANCH  10   9
ATOM      4  C   UNL     1      16.677 -10.762 -14.164  0.00  0.00    +0.077 A 
ATOM      5  C   UNL     1      17.655  -9.760 -14.478  0.00  0.00    +0.048 A 
ATOM      6  C   UNL     1      18.058  -9.647 -15.828  0.00  0.00    +0.116 A 
ATOM      7  N   UNL     1      17.518 -10.480 -16.783  0.00  0.00    -0.223 NA
ATOM      8  C   UNL     1      16.579 -11.438 -16.446  0.00  0.00    +0.220 A 
ATOM      9  N   UNL     1      16.016 -12.281 -17.392  0.00  0.00    -0.283 N 
ATOM     36  H   UNL     1      15.332 -12.979 -17.102  0.00  0.00    +0.155 HD
ATOM     37  N   UNL     1      16.178 -11.566 -15.164  0.00  0.00    -0.214 NA
BRANCH   4   3
ATOM      1  C   UNL     1      14.270 -11.403 -11.148  0.00  0.00    +0.020 A 
ATOM      2  C   UNL     1      14.729 -11.174 -12.499  0.00  0.00    +0.013 A 
ATOM      3  C   UNL     1      16.148 -11.000 -12.784  0.00  0.00    +0.019 A 
ATOM     38  C   UNL     1      17.083 -11.065 -11.671  0.00  0.00    +0.120 A 
ATOM     39  N   UNL     1      16.612 -11.284 -10.381  0.00  0.00    -0.263 NA
ATOM     40  C   UNL     1      15.249 -11.452 -10.094  0.00  0.00    +0.111 A 
ENDBRANCH   4   3
ENDBRANCH  10   9
BRANCH  12  13
ATOM     13  N   UNL     1      15.619  -9.956 -21.773  0.00  0.00    -0.281 N 
ATOM     14  C   UNL     1      16.317  -9.072 -22.580  0.00  0.00    +0.248 C 
ATOM     30  O   UNL     1      17.526  -8.903 -22.535  0.00  0.00    -0.270 OA
ATOM     31  H   UNL     1      14.604  -9.858 -21.775  0.00  0.00    +0.155 HD
BRANCH  14  15
ATOM     15  C   UNL     1      15.560  -8.248 -23.571  0.00  0.00    +0.037 A 
ATOM     16  C   UNL     1      16.094  -6.976 -24.066  0.00  0.00    +0.013 A 
ATOM     17  C   UNL     1      15.336  -6.192 -25.009  0.00  0.00    +0.005 A 
ATOM     18  C   UNL     1      14.036  -6.679 -25.463  0.00  0.00    -0.033 A 
ATOM     28  C   UNL     1      13.532  -7.946 -24.959  0.00  0.00    +0.005 A 
ATOM     29  C   UNL     1      14.272  -8.717 -24.034  0.00  0.00    +0.013 A 
BRANCH  18  19
ATOM     19  C   UNL     1      13.149  -5.897 -26.451  0.00  0.00    +0.119 C 
BRANCH  19  20
ATOM     20  N   UNL     1      11.985  -5.153 -25.883  0.00  0.00    -0.302 NA
ATOM     21  C   UNL     1      11.034  -4.654 -26.975  0.00  0.00    +0.066 C 
ATOM     22  C   UNL     1       9.812  -3.897 -26.363  0.00  0.00    -0.064 C 
ATOM     23  N   UNL     1      10.313  -2.731 -25.508  0.00  0.00    +0.379 N 
ATOM     24  C   UNL     1       9.164  -1.982 -24.978  0.00  0.00    -0.096 C 
ATOM     25  H   UNL     1      10.886  -2.046 -26.175  0.00  0.00    -0.082 HD
ATOM     26  C   UNL     1      11.261  -3.218 -24.422  0.00  0.00    -0.064 C 
ATOM     27  C   UNL     1      12.458  -3.994 -25.039  0.00  0.00    +0.066 C 
ENDBRANCH  19  20
ENDBRANCH  18  19
ENDBRANCH  14  15
ENDBRANCH  12  13
TORSDOF 6
ENDMDL
MODEL 3
REMARK VINA RESULT:      -8.3      3.700     12.517
REMARK  Name = C:\Users\Docking\Desktop\test protocol\1iep_ligandH.pdb
REMARK  8 active torsions:
REMARK  status: ('A' for Active; 'I' for Inactive)
REMARK    1  A    between atoms: _5  and  _11
REMARK    2  A    between atoms: _19  and  _21
REMARK    3  A    between atoms: _22  and  _66
REMARK    4  A    between atoms: _27  and  _30
REMARK    5  A    between atoms: _32  and  _33
REMARK    6  A    between atoms: _38  and  _43
REMARK    7  A    between atoms: _43  and  _46
REMARK    8  A    between atoms: _53  and  _55
REMARK                            x       y       z     vdW  Elec       q    Type
REMARK                         _______ _______ _______ _____ _____    ______ ____
ROOT
ATOM     10  C   UNL     1      12.655  -6.564 -26.419  0.00  0.00    +0.038 A 
ATOM     11  C   UNL     1      13.086  -7.421 -25.375  0.00  0.00    +0.047 A 
ATOM     12  C   UNL     1      14.411  -8.021 -25.392  0.00  0.00    +0.035 A 
ATOM     32  C   UNL     1      15.273  -7.724 -26.488  0.00  0.00    +0.024 A 
ATOM     33  C   UNL     1      14.850  -6.856 -27.559  0.00  0.00    +0.007 A 
ATOM     34  C   UNL     1      13.544  -6.263 -27.548  0.00  0.00    -0.029 A 
ATOM     35  C   UNL     1      13.142  -5.345 -28.726  0.00  0.00    +0.045 C 
ENDROOT
BRANCH  10   9
ATOM      4  C   UNL     1       9.562  -3.201 -24.949  0.00  0.00    +0.077 A 
ATOM      5  C   UNL     1      10.583  -2.492 -24.232  0.00  0.00    +0.048 A 
ATOM      6  C   UNL     1      11.889  -3.029 -24.261  0.00  0.00    +0.116 A 
ATOM      7  N   UNL     1      12.144  -4.190 -24.959  0.00  0.00    -0.223 NA
ATOM      8  C   UNL     1      11.137  -4.851 -25.638  0.00  0.00    +0.220 A 
ATOM      9  N   UNL     1      11.372  -6.015 -26.352  0.00  0.00    -0.283 N 
ATOM     36  H   UNL     1      10.601  -6.476 -26.833  0.00  0.00    +0.155 HD
ATOM     37  N   UNL     1       9.881  -4.358 -25.624  0.00  0.00    -0.214 NA
BRANCH   4   3
ATOM      1  C   UNL     1       5.703  -3.122 -25.582  0.00  0.00    +0.020 A 
ATOM      2  C   UNL     1       7.066  -3.599 -25.541  0.00  0.00    +0.013 A 
ATOM      3  C   UNL     1       8.134  -2.757 -25.015  0.00  0.00    +0.019 A 
ATOM     38  C   UNL     1       7.786  -1.428 -24.535  0.00  0.00    +0.120 A 
ATOM     39  N   UNL     1       6.464  -0.996 -24.588  0.00  0.00    -0.263 NA
ATOM     40  C   UNL     1       5.429  -1.796 -25.094  0.00  0.00    +0.111 A 
ENDBRANCH   4   3
ENDBRANCH  10   9
BRANCH  12  13
ATOM     13  N   UNL     1      14.901  -8.905 -24.364  0.00  0.00    -0.281 N 
ATOM     14  C   UNL     1      15.881  -8.651 -23.418  0.00  0.00    +0.248 C 
ATOM     30  O   UNL     1      16.639  -7.693 -23.448  0.00  0.00    -0.270 OA
ATOM     31  H   UNL     1      14.474  -9.831 -24.329  0.00  0.00    +0.155 HD
BRANCH  14  15
ATOM     15  C   UNL     1      16.052  -9.607 -22.282  0.00  0.00    +0.037 A 
ATOM     16  C   UNL     1      17.340 -10.255 -22.022  0.00  0.00    +0.013 A 
ATOM     17  C   UNL     1      17.474 -11.186 -20.930  0.00  0.00    +0.005 A 
ATOM     18  C   UNL     1      16.316 -11.473 -20.088  0.00  0.00    -0.033 A 
ATOM     28  C   UNL     1      15.051 -10.812 -20.364  0.00  0.00    +0.005 A 
ATOM     29  C   UNL     1      14.916  -9.900 -21.435  0.00  0.00    +0.013 A 
BRANCH  18  19
ATOM     19  C   UNL     1      16.362 -12.469 -18.913  0.00  0.00    +0.119 C 
BRANCH  19  20
ATOM     20  N   UNL     1      16.144 -11.920 -17.542  0.00  0.00    -0.302 NA
ATOM     21  C   UNL     1      17.086 -12.553 -16.514  0.00  0.00    +0.066 C 
ATOM     22  C   UNL     1      16.861 -11.950 -15.089  0.00  0.00    -0.064 C 
ATOM     23  N   UNL     1      15.400 -12.148 -14.679  0.00  0.00    +0.379 N 
ATOM     24  C   UNL     1      15.199 -11.634 -13.317  0.00  0.00    -0.096 C 
ATOM     25  H   UNL     1      15.200 -13.244 -14.661  0.00  0.00    -0.082 HD
ATOM     26  C   UNL     1      14.457 -11.524 -15.698  0.00  0.00    -0.064 C 
ATOM     27  C   UNL     1      14.709 -12.108 -17.116  0.00  0.00    +0.066 C 
ENDBRANCH  19  20
ENDBRANCH  18  19
ENDBRANCH  14  15
ENDBRANCH  12  13
TORSDOF 6
ENDMDL
MODEL 4
REMARK VINA RESULT:      -8.2      4.616      8.679
REMARK  Name = C:\Users\Docking\Desktop\test protocol\1iep_ligandH.pdb
REMARK  8 active torsions:
REMARK  status: ('A' for Active; 'I' for Inactive)
REMARK    1  A    between atoms: _5  and  _11
REMARK    2  A    between atoms: _19  and  _21
REMARK    3  A    between atoms: _22  and  _66
REMARK    4  A    between atoms: _27  and  _30
REMARK    5  A    between atoms: _32  and  _33
REMARK    6  A    between atoms: _38  and  _43
REMARK    7  A    between atoms: _43  and  _46
REMARK    8  A    between atoms: _53  and  _55
REMARK                            x       y       z     vdW  Elec       q    Type
REMARK                         _______ _______ _______ _____ _____    ______ ____
ROOT
ATOM     10  C   UNL     1      14.724 -13.623 -11.809  0.00  0.00    +0.038 A 
ATOM     11  C   UNL     1      15.021 -13.697 -13.194  0.00  0.00    +0.047 A 
ATOM     12  C   UNL     1      15.218 -12.493 -13.987  0.00  0.00    +0.035 A 
ATOM     32  C   UNL     1      15.108 -11.230 -13.335  0.00  0.00    +0.024 A 
ATOM     33  C   UNL     1      14.806 -11.136 -11.929  0.00  0.00    +0.007 A 
ATOM     34  C   UNL     1      14.608 -12.320 -11.142  0.00  0.00    -0.029 A 
ATOM     35  C   UNL     1      14.280 -12.160  -9.640  0.00  0.00    +0.045 C 
ENDROOT
BRANCH  10   9
ATOM      4  C   UNL     1      16.333 -17.131  -8.955  0.00  0.00    +0.077 A 
ATOM      5  C   UNL     1      17.649 -16.564  -8.901  0.00  0.00    +0.048 A 
ATOM      6  C   UNL     1      17.873 -15.373  -9.628  0.00  0.00    +0.116 A 
ATOM      7  N   UNL     1      16.849 -14.800 -10.350  0.00  0.00    -0.223 NA
ATOM      8  C   UNL     1      15.591 -15.374 -10.383  0.00  0.00    +0.220 A 
ATOM      9  N   UNL     1      14.545 -14.810 -11.096  0.00  0.00    -0.283 N 
ATOM     36  H   UNL     1      13.634 -15.268 -11.101  0.00  0.00    +0.155 HD
ATOM     37  N   UNL     1      15.353 -16.512  -9.699  0.00  0.00    -0.214 NA
BRANCH   4   3
ATOM      1  C   UNL     1      14.793 -19.622  -6.363  0.00  0.00    +0.020 A 
ATOM      2  C   UNL     1      15.146 -18.383  -7.016  0.00  0.00    +0.013 A 
ATOM      3  C   UNL     1      15.939 -18.385  -8.238  0.00  0.00    +0.019 A 
ATOM     38  C   UNL     1      16.362 -19.668  -8.779  0.00  0.00    +0.120 A 
ATOM     39  N   UNL     1      16.008 -20.845  -8.127  0.00  0.00    -0.263 NA
ATOM     40  C   UNL     1      15.246 -20.856  -6.949  0.00  0.00    +0.111 A 
ENDBRANCH   4   3
ENDBRANCH  10   9
BRANCH  12  13
ATOM     13  N   UNL     1      15.514 -12.506 -15.398  0.00  0.00    -0.281 N 
ATOM     14  C   UNL     1      14.711 -12.071 -16.440  0.00  0.00    +0.248 C 
ATOM     30  O   UNL     1      13.524 -11.801 -16.332  0.00  0.00    -0.270 OA
ATOM     31  H   UNL     1      16.425 -12.880 -15.660  0.00  0.00    +0.155 HD
BRANCH  14  15
ATOM     15  C   UNL     1      15.310 -11.930 -17.802  0.00  0.00    +0.037 A 
ATOM     16  C   UNL     1      16.563 -12.602 -18.155  0.00  0.00    +0.013 A 
ATOM     17  C   UNL     1      17.128 -12.436 -19.470  0.00  0.00    +0.005 A 
ATOM     18  C   UNL     1      16.438 -11.593 -20.444  0.00  0.00    -0.033 A 
ATOM     28  C   UNL     1      15.193 -10.942 -20.070  0.00  0.00    +0.005 A 
ATOM     29  C   UNL     1      14.637 -11.102 -18.781  0.00  0.00    +0.013 A 
BRANCH  18  19
ATOM     19  C   UNL     1      16.978 -11.342 -21.865  0.00  0.00    +0.119 C 
BRANCH  19  20
ATOM     20  N   UNL     1      17.640 -10.028 -22.122  0.00  0.00    -0.302 NA
ATOM     21  C   UNL     1      18.467  -9.557 -20.922  0.00  0.00    +0.066 C 
ATOM     22  C   UNL     1      19.170  -8.192 -21.216  0.00  0.00    -0.064 C 
ATOM     23  N   UNL     1      18.116  -7.149 -21.592  0.00  0.00    +0.379 N 
ATOM     24  C   UNL     1      18.769  -5.850 -21.813  0.00  0.00    -0.096 C 
ATOM     25  H   UNL     1      17.426  -7.037 -20.723  0.00  0.00    -0.082 HD
ATOM     26  C   UNL     1      17.288  -7.611 -22.782  0.00  0.00    -0.064 C 
ATOM     27  C   UNL     1      16.617  -8.982 -22.490  0.00  0.00    +0.066 C 
ENDBRANCH  19  20
ENDBRANCH  18  19
ENDBRANCH  14  15
ENDBRANCH  12  13
TORSDOF 6
ENDMDL
MODEL 5
REMARK VINA RESULT:      -8.2      1.658      2.656
REMARK  Name = C:\Users\Docking\Desktop\test protocol\1iep_ligandH.pdb
REMARK  8 active torsions:
REMARK  status: ('A' for Active; 'I' for Inactive)
REMARK    1  A    between atoms: _5  and  _11
REMARK    2  A    between atoms: _19  and  _21
REMARK    3  A    between atoms: _22  and  _66
REMARK    4  A    between atoms: _27  and  _30
REMARK    5  A    between atoms: _32  and  _33
REMARK    6  A    between atoms: _38  and  _43
REMARK    7  A    between atoms: _43  and  _46
REMARK    8  A    between atoms: _53  and  _55
REMARK                            x       y       z     vdW  Elec       q    Type
REMARK                         _______ _______ _______ _____ _____    ______ ____
ROOT
ATOM     10  C   UNL     1      17.567 -12.589 -17.710  0.00  0.00    +0.038 A 
ATOM     11  C   UNL     1      17.217 -11.440 -18.464  0.00  0.00    +0.047 A 
ATOM     12  C   UNL     1      17.112 -11.495 -19.914  0.00  0.00    +0.035 A 
ATOM     32  C   UNL     1      17.369 -12.738 -20.563  0.00  0.00    +0.024 A 
ATOM     33  C   UNL     1      17.726 -13.916 -19.812  0.00  0.00    +0.007 A 
ATOM     34  C   UNL     1      17.833 -13.867 -18.382  0.00  0.00    -0.029 A 
ATOM     35  C   UNL     1      18.227 -15.159 -17.628  0.00  0.00    +0.045 C 
ENDROOT
BRANCH  10   9
ATOM      4  C   UNL     1      15.625 -11.740 -13.404  0.00  0.00    +0.077 A 
ATOM      5  C   UNL     1      14.337 -11.465 -13.973  0.00  0.00    +0.048 A 
ATOM      6  C   UNL     1      14.218 -11.546 -15.378  0.00  0.00    +0.116 A 
ATOM      7  N   UNL     1      15.312 -11.878 -16.147  0.00  0.00    -0.223 NA
ATOM      8  C   UNL     1      16.540 -12.136 -15.567  0.00  0.00    +0.220 A 
ATOM      9  N   UNL     1      17.652 -12.480 -16.320  0.00  0.00    -0.283 N 
ATOM     36  H   UNL     1      18.542 -12.655 -15.855  0.00  0.00    +0.155 HD
ATOM     37  N   UNL     1      16.680 -12.064 -14.227  0.00  0.00    -0.214 NA
BRANCH   4   3
ATOM      1  C   UNL     1      17.372 -12.133  -9.926  0.00  0.00    +0.020 A 
ATOM      2  C   UNL     1      17.148 -12.197 -11.352  0.00  0.00    +0.013 A 
ATOM      3  C   UNL     1      15.908 -11.698 -11.934  0.00  0.00    +0.019 A 
ATOM     38  C   UNL     1      14.909 -11.135 -11.039  0.00  0.00    +0.120 A 
ATOM     39  N   UNL     1      15.152 -11.088  -9.670  0.00  0.00    -0.263 NA
ATOM     40  C   UNL     1      16.340 -11.567  -9.098  0.00  0.00    +0.111 A 
ENDBRANCH   4   3
ENDBRANCH  10   9
BRANCH  12  13
ATOM     13  N   UNL     1      16.769 -10.360 -20.734  0.00  0.00    -0.281 N 
ATOM     14  C   UNL     1      17.553  -9.729 -21.686  0.00  0.00    +0.248 C 
ATOM     30  O   UNL     1      18.752  -9.914 -21.827  0.00  0.00    -0.270 OA
ATOM     31  H   UNL     1      15.835  -9.974 -20.595  0.00  0.00    +0.155 HD
BRANCH  14  15
ATOM     15  C   UNL     1      16.914  -8.738 -22.605  0.00  0.00    +0.037 A 
ATOM     16  C   UNL     1      17.418  -7.366 -22.713  0.00  0.00    +0.013 A 
ATOM     17  C   UNL     1      16.773  -6.426 -23.594  0.00  0.00    +0.005 A 
ATOM     18  C   UNL     1      15.617  -6.855 -24.377  0.00  0.00    -0.033 A 
ATOM     28  C   UNL     1      15.141  -8.223 -24.255  0.00  0.00    +0.005 A 
ATOM     29  C   UNL     1      15.770  -9.147 -23.391  0.00  0.00    +0.013 A 
BRANCH  18  19
ATOM     19  C   UNL     1      14.854  -5.913 -25.327  0.00  0.00    +0.119 C 
BRANCH  19  20
ATOM     20  N   UNL     1      13.902  -6.539 -26.292  0.00  0.00    -0.302 NA
ATOM     21  C   UNL     1      14.183  -6.113 -27.736  0.00  0.00    +0.066 C 
ATOM     22  C   UNL     1      13.192  -6.795 -28.734  0.00  0.00    -0.064 C 
ATOM     23  N   UNL     1      11.755  -6.451 -28.337  0.00  0.00    +0.379 N 
ATOM     24  C   UNL     1      10.823  -7.043 -29.308  0.00  0.00    -0.096 C 
ATOM     25  H   UNL     1      11.645  -5.343 -28.395  0.00  0.00    -0.082 HD
ATOM     26  C   UNL     1      11.468  -6.869 -26.902  0.00  0.00    -0.064 C 
ATOM     27  C   UNL     1      12.477  -6.209 -25.922  0.00  0.00    +0.066 C 
ENDBRANCH  19  20
ENDBRANCH  18  19
ENDBRANCH  14  15
ENDBRANCH  12  13
TORSDOF 6
ENDMDL
