MODEL 1
REMARK VINA RESULT:      -6.8      0.000      0.000
REMARK  Name = C:\Users\Docking\Desktop\test protocol\1iep_ligandH.pdb
REMARK  8 active torsions:
REMARK  status: ('A' for Active; 'I' for Inactive)
REMARK    1  A    between atoms: _5  and  _11
REMARK    2  A    between atoms: _19  and  _21
REMARK    3  A    between atoms: _22  and  _66
REMARK    4  A    between atoms: _27  and  _30
REMARK    5  A    between atoms: _32  and  _33
REMARK    6  A    between atoms: _38  and  _43
REMARK    7  A    between atoms: _43  and  _46
REMARK    8  A    between atoms: _53  and  _55
REMARK                            x       y       z     vdW  Elec       q    Type
REMARK                         _______ _______ _______ _____ _____    ______ ____
ROOT
ATOM     10  C   UNL     1       6.727  13.495   0.719  0.00  0.00    +0.038 A 
ATOM     11  C   UNL     1       7.343  12.466  -0.038  0.00  0.00    +0.047 A 
ATOM     12  C   UNL     1       8.599  11.868   0.386  0.00  0.00    +0.035 A 
ATOM     32  C   UNL     1       9.199  12.340   1.590  0.00  0.00    +0.024 A 
ATOM     33  C   UNL     1       8.587  13.385   2.372  0.00  0.00    +0.007 A 
ATOM     34  C   UNL     1       7.350  13.981   1.957  0.00  0.00    -0.029 A 
ATOM     35  C   UNL     1       6.742  15.102   2.831  0.00  0.00    +0.045 C 
ENDROOT
BRANCH  10   9
ATOM      4  C   UNL     1       1.934  13.751   0.735  0.00  0.00    +0.077 A 
ATOM      5  C   UNL     1       1.822  12.706   1.710  0.00  0.00    +0.048 A 
ATOM      6  C   UNL     1       3.021  12.123   2.177  0.00  0.00    +0.116 A 
ATOM      7  N   UNL     1       4.237  12.561   1.698  0.00  0.00    -0.223 NA
ATOM      8  C   UNL     1       4.309  13.571   0.756  0.00  0.00    +0.220 A 
ATOM      9  N   UNL     1       5.521  14.033   0.265  0.00  0.00    -0.283 N 
ATOM     36  H   UNL     1       5.532  14.775  -0.434  0.00  0.00    +0.155 HD
ATOM     37  N   UNL     1       3.178  14.143   0.293  0.00  0.00    -0.214 NA
BRANCH   4   3
ATOM      1  C   UNL     1      -1.146  16.119   0.273  0.00  0.00    +0.020 A 
ATOM      2  C   UNL     1      -0.019  15.455   0.887  0.00  0.00    +0.013 A 
ATOM      3  C   UNL     1       0.758  14.468   0.147  0.00  0.00    +0.019 A 
ATOM     38  C   UNL     1       0.365  14.173  -1.222  0.00  0.00    +0.120 A 
ATOM     39  N   UNL     1      -0.726  14.826  -1.787  0.00  0.00    -0.263 NA
ATOM     40  C   UNL     1      -1.482  15.777  -1.085  0.00  0.00    +0.111 A 
ENDBRANCH   4   3
ENDBRANCH  10   9
BRANCH  12  13
ATOM     13  N   UNL     1       9.275  10.826  -0.347  0.00  0.00    -0.281 N 
ATOM     14  C   UNL     1      10.162  10.965  -1.402  0.00  0.00    +0.248 C 
ATOM     30  O   UNL     1      10.346  12.005  -2.018  0.00  0.00    -0.270 OA
ATOM     31  H   UNL     1       9.076   9.870  -0.052  0.00  0.00    +0.155 HD
BRANCH  14  15
ATOM     15  C   UNL     1      10.949   9.774  -1.845  0.00  0.00    +0.037 A 
ATOM     16  C   UNL     1      10.316   8.677  -2.581  0.00  0.00    +0.013 A 
ATOM     17  C   UNL     1      11.094   7.532  -2.982  0.00  0.00    +0.005 A 
ATOM     18  C   UNL     1      12.515   7.480  -2.650  0.00  0.00    -0.033 A 
ATOM     28  C   UNL     1      13.119   8.585  -1.924  0.00  0.00    +0.005 A 
ATOM     29  C   UNL     1      12.359   9.708  -1.528  0.00  0.00    +0.013 A 
BRANCH  18  19
ATOM     19  C   UNL     1      13.418   6.287  -3.020  0.00  0.00    +0.119 C 
BRANCH  19  20
ATOM     20  N   UNL     1      13.802   5.353  -1.920  0.00  0.00    -0.302 NA
ATOM     21  C   UNL     1      14.238   3.986  -2.453  0.00  0.00    +0.066 C 
ATOM     22  C   UNL     1      14.658   3.029  -1.291  0.00  0.00    -0.064 C 
ATOM     23  N   UNL     1      13.493   2.880  -0.310  0.00  0.00    +0.379 N 
ATOM     24  C   UNL     1      13.864   1.936   0.753  0.00  0.00    -0.096 C 
ATOM     25  H   UNL     1      12.635   2.441  -0.870  0.00  0.00    -0.082 HD
ATOM     26  C   UNL     1      13.051   4.236   0.223  0.00  0.00    -0.064 C 
ATOM     27  C   UNL     1      12.664   5.189  -0.942  0.00  0.00    +0.066 C 
ENDBRANCH  19  20
ENDBRANCH  18  19
ENDBRANCH  14  15
ENDBRANCH  12  13
TORSDOF 6
ENDMDL
MODEL 2
REMARK VINA RESULT:      -6.8     24.448     26.529
REMARK  Name = C:\Users\Docking\Desktop\test protocol\1iep_ligandH.pdb
REMARK  8 active torsions:
REMARK  status: ('A' for Active; 'I' for Inactive)
REMARK    1  A    between atoms: _5  and  _11
REMARK    2  A    between atoms: _19  and  _21
REMARK    3  A    between atoms: _22  and  _66
REMARK    4  A    between atoms: _27  and  _30
REMARK    5  A    between atoms: _32  and  _33
REMARK    6  A    between atoms: _38  and  _43
REMARK    7  A    between atoms: _43  and  _46
REMARK    8  A    between atoms: _53  and  _55
REMARK                            x       y       z     vdW  Elec       q    Type
REMARK                         _______ _______ _______ _____ _____    ______ ____
ROOT
ATOM     10  C   UNL     1     -15.344  10.360 -16.381  0.00  0.00    +0.038 A 
ATOM     11  C   UNL     1     -14.007  10.576 -16.802  0.00  0.00    +0.047 A 
ATOM     12  C   UNL     1     -13.589  10.277 -18.163  0.00  0.00    +0.035 A 
ATOM     32  C   UNL     1     -14.561   9.761 -19.070  0.00  0.00    +0.024 A 
ATOM     33  C   UNL     1     -15.924   9.535 -18.658  0.00  0.00    +0.007 A 
ATOM     34  C   UNL     1     -16.341   9.825 -17.316  0.00  0.00    -0.029 A 
ATOM     35  C   UNL     1     -17.813   9.557 -16.928  0.00  0.00    +0.045 C 
ENDROOT
BRANCH  10   9
ATOM      4  C   UNL     1     -15.955   9.147 -11.777  0.00  0.00    +0.077 A 
ATOM      5  C   UNL     1     -15.578   7.785 -12.025  0.00  0.00    +0.048 A 
ATOM      6  C   UNL     1     -15.241   7.436 -13.352  0.00  0.00    +0.116 A 
ATOM      7  N   UNL     1     -15.281   8.386 -14.349  0.00  0.00    -0.223 NA
ATOM      8  C   UNL     1     -15.650   9.690 -14.077  0.00  0.00    +0.220 A 
ATOM      9  N   UNL     1     -15.690  10.664 -15.062  0.00  0.00    -0.283 N 
ATOM     36  H   UNL     1     -15.975  11.613 -14.822  0.00  0.00    +0.155 HD
ATOM     37  N   UNL     1     -15.978  10.049 -12.818  0.00  0.00    -0.214 NA
BRANCH   4   3
ATOM      1  C   UNL     1     -16.309  11.436  -8.625  0.00  0.00    +0.020 A 
ATOM      2  C   UNL     1     -15.914  10.977  -9.937  0.00  0.00    +0.013 A 
ATOM      3  C   UNL     1     -16.334   9.670 -10.427  0.00  0.00    +0.019 A 
ATOM     38  C   UNL     1     -17.161   8.846  -9.558  0.00  0.00    +0.120 A 
ATOM     39  N   UNL     1     -17.524   9.313  -8.299  0.00  0.00    -0.263 NA
ATOM     40  C   UNL     1     -17.124  10.568  -7.816  0.00  0.00    +0.111 A 
ENDBRANCH   4   3
ENDBRANCH  10   9
BRANCH  12  13
ATOM     13  N   UNL     1     -12.244  10.468 -18.646  0.00  0.00    -0.281 N 
ATOM     14  C   UNL     1     -11.795  11.398 -19.569  0.00  0.00    +0.248 C 
ATOM     30  O   UNL     1     -12.523  12.071 -20.284  0.00  0.00    -0.270 OA
ATOM     31  H   UNL     1     -11.537   9.842 -18.260  0.00  0.00    +0.155 HD
BRANCH  14  15
ATOM     15  C   UNL     1     -10.323  11.600 -19.733  0.00  0.00    +0.037 A 
ATOM     16  C   UNL     1      -9.747  11.979 -21.026  0.00  0.00    +0.013 A 
ATOM     17  C   UNL     1      -8.322  12.151 -21.160  0.00  0.00    +0.005 A 
ATOM     18  C   UNL     1      -7.463  11.944 -19.997  0.00  0.00    -0.033 A 
ATOM     28  C   UNL     1      -8.061  11.573 -18.725  0.00  0.00    +0.005 A 
ATOM     29  C   UNL     1      -9.457  11.403 -18.590  0.00  0.00    +0.013 A 
BRANCH  18  19
ATOM     19  C   UNL     1      -5.930  12.085 -20.054  0.00  0.00    +0.119 C 
BRANCH  19  20
ATOM     20  N   UNL     1      -5.220  11.382 -21.164  0.00  0.00    -0.302 NA
ATOM     21  C   UNL     1      -5.221   9.863 -20.976  0.00  0.00    +0.066 C 
ATOM     22  C   UNL     1      -4.493   9.142 -22.157  0.00  0.00    -0.064 C 
ATOM     23  N   UNL     1      -3.063   9.673 -22.271  0.00  0.00    +0.379 N 
ATOM     24  C   UNL     1      -2.358   8.956 -23.344  0.00  0.00    -0.096 C 
ATOM     25  H   UNL     1      -2.541   9.446 -21.312  0.00  0.00    -0.082 HD
ATOM     26  C   UNL     1      -3.053  11.183 -22.455  0.00  0.00    -0.064 C 
ATOM     27  C   UNL     1      -3.804  11.888 -21.291  0.00  0.00    +0.066 C 
ENDBRANCH  19  20
ENDBRANCH  18  19
ENDBRANCH  14  15
ENDBRANCH  12  13
TORSDOF 6
ENDMDL
MODEL 3
REMARK VINA RESULT:      -6.8     22.226     26.268
REMARK  Name = C:\Users\Docking\Desktop\test protocol\1iep_ligandH.pdb
REMARK  8 active torsions:
REMARK  status: ('A' for Active; 'I' for Inactive)
REMARK    1  A    between atoms: _5  and  _11
REMARK    2  A    between atoms: _19  and  _21
REMARK    3  A    between atoms: _22  and  _66
REMARK    4  A    between atoms: _27  and  _30
REMARK    5  A    between atoms: _32  and  _33
REMARK    6  A    between atoms: _38  and  _43
REMARK    7  A    between atoms: _43  and  _46
REMARK    8  A    between atoms: _53  and  _55
REMARK                            x       y       z     vdW  Elec       q    Type
REMARK                         _______ _______ _______ _____ _____    ______ ____
ROOT
ATOM     10  C   UNL     1       0.031 -10.535  -2.670  0.00  0.00    +0.038 A 
ATOM     11  C   UNL     1      -1.251  -9.944  -2.810  0.00  0.00    +0.047 A 
ATOM     12  C   UNL     1      -2.217  -9.978  -1.723  0.00  0.00    +0.035 A 
ATOM     32  C   UNL     1      -1.844 -10.620  -0.506  0.00  0.00    +0.024 A 
ATOM     33  C   UNL     1      -0.546 -11.226  -0.348  0.00  0.00    +0.007 A 
ATOM     34  C   UNL     1       0.411 -11.199  -1.417  0.00  0.00    -0.029 A 
ATOM     35  C   UNL     1       1.786 -11.871  -1.193  0.00  0.00    +0.045 C 
ENDROOT
BRANCH  10   9
ATOM      4  C   UNL     1       1.780 -12.203  -6.817  0.00  0.00    +0.077 A 
ATOM      5  C   UNL     1       0.862 -13.306  -6.828  0.00  0.00    +0.048 A 
ATOM      6  C   UNL     1      -0.038 -13.412  -5.745  0.00  0.00    +0.116 A 
ATOM      7  N   UNL     1      -0.015 -12.479  -4.731  0.00  0.00    -0.223 NA
ATOM      8  C   UNL     1       0.884 -11.428  -4.750  0.00  0.00    +0.220 A 
ATOM      9  N   UNL     1       0.920 -10.474  -3.746  0.00  0.00    -0.283 N 
ATOM     36  H   UNL     1       1.603  -9.718  -3.792  0.00  0.00    +0.155 HD
ATOM     37  N   UNL     1       1.755 -11.306  -5.773  0.00  0.00    -0.214 NA
BRANCH   4   3
ATOM      1  C   UNL     1       3.739 -10.600  -9.799  0.00  0.00    +0.020 A 
ATOM      2  C   UNL     1       2.738 -10.795  -8.776  0.00  0.00    +0.013 A 
ATOM      3  C   UNL     1       2.790 -11.954  -7.893  0.00  0.00    +0.019 A 
ATOM     38  C   UNL     1       3.878 -12.904  -8.073  0.00  0.00    +0.120 A 
ATOM     39  N   UNL     1       4.827 -12.691  -9.068  0.00  0.00    -0.263 NA
ATOM     40  C   UNL     1       4.786 -11.580  -9.924  0.00  0.00    +0.111 A 
ENDBRANCH   4   3
ENDBRANCH  10   9
BRANCH  12  13
ATOM     13  N   UNL     1      -3.536  -9.402  -1.810  0.00  0.00    -0.281 N 
ATOM     14  C   UNL     1      -4.047  -8.331  -1.095  0.00  0.00    +0.248 C 
ATOM     30  O   UNL     1      -3.511  -7.837  -0.113  0.00  0.00    -0.270 OA
ATOM     31  H   UNL     1      -4.171  -9.837  -2.479  0.00  0.00    +0.155 HD
BRANCH  14  15
ATOM     15  C   UNL     1      -5.346  -7.730  -1.524  0.00  0.00    +0.037 A 
ATOM     16  C   UNL     1      -5.524  -6.278  -1.598  0.00  0.00    +0.013 A 
ATOM     17  C   UNL     1      -6.794  -5.724  -1.998  0.00  0.00    +0.005 A 
ATOM     18  C   UNL     1      -7.896  -6.625  -2.328  0.00  0.00    -0.033 A 
ATOM     28  C   UNL     1      -7.690  -8.062  -2.251  0.00  0.00    +0.005 A 
ATOM     29  C   UNL     1      -6.447  -8.608  -1.858  0.00  0.00    +0.013 A 
BRANCH  18  19
ATOM     19  C   UNL     1      -9.291  -6.122  -2.745  0.00  0.00    +0.119 C 
BRANCH  19  20
ATOM     20  N   UNL     1      -9.914  -6.752  -3.947  0.00  0.00    -0.302 NA
ATOM     21  C   UNL     1      -9.089  -6.511  -5.214  0.00  0.00    +0.066 C 
ATOM     22  C   UNL     1      -9.743  -7.196  -6.458  0.00  0.00    -0.064 C 
ATOM     23  N   UNL     1     -11.170  -6.673  -6.633  0.00  0.00    +0.379 N 
ATOM     24  C   UNL     1     -11.768  -7.271  -7.835  0.00  0.00    -0.096 C 
ATOM     25  H   UNL     1     -11.108  -5.572  -6.798  0.00  0.00    -0.082 HD
ATOM     26  C   UNL     1     -11.997  -6.906  -5.376  0.00  0.00    -0.064 C 
ATOM     27  C   UNL     1     -11.322  -6.246  -4.141  0.00  0.00    +0.066 C 
ENDBRANCH  19  20
ENDBRANCH  18  19
ENDBRANCH  14  15
ENDBRANCH  12  13
TORSDOF 6
ENDMDL
MODEL 4
REMARK VINA RESULT:      -6.8     19.748     22.365
REMARK  Name = C:\Users\Docking\Desktop\test protocol\1iep_ligandH.pdb
REMARK  8 active torsions:
REMARK  status: ('A' for Active; 'I' for Inactive)
REMARK    1  A    between atoms: _5  and  _11
REMARK    2  A    between atoms: _19  and  _21
REMARK    3  A    between atoms: _22  and  _66
REMARK    4  A    between atoms: _27  and  _30
REMARK    5  A    between atoms: _32  and  _33
REMARK    6  A    between atoms: _38  and  _43
REMARK    7  A    between atoms: _43  and  _46
REMARK    8  A    between atoms: _53  and  _55
REMARK                            x       y       z     vdW  Elec       q    Type
REMARK                         _______ _______ _______ _____ _____    ______ ____
ROOT
ATOM     10  C   UNL     1      -5.766  -3.022   3.038  0.00  0.00    +0.038 A 
ATOM     11  C   UNL     1      -6.043  -3.308   1.676  0.00  0.00    +0.047 A 
ATOM     12  C   UNL     1      -7.027  -4.312   1.303  0.00  0.00    +0.035 A 
ATOM     32  C   UNL     1      -7.714  -5.004   2.342  0.00  0.00    +0.024 A 
ATOM     33  C   UNL     1      -7.444  -4.727   3.731  0.00  0.00    +0.007 A 
ATOM     34  C   UNL     1      -6.473  -3.740   4.106  0.00  0.00    -0.029 A 
ATOM     35  C   UNL     1      -6.220  -3.488   5.611  0.00  0.00    +0.045 C 
ENDROOT
BRANCH  10   9
ATOM      4  C   UNL     1      -4.514   1.475   4.154  0.00  0.00    +0.077 A 
ATOM      5  C   UNL     1      -5.874   1.928   4.107  0.00  0.00    +0.048 A 
ATOM      6  C   UNL     1      -6.865   0.974   3.784  0.00  0.00    +0.116 A 
ATOM      7  N   UNL     1      -6.511  -0.333   3.530  0.00  0.00    -0.223 NA
ATOM      8  C   UNL     1      -5.190  -0.737   3.583  0.00  0.00    +0.220 A 
ATOM      9  N   UNL     1      -4.812  -2.048   3.339  0.00  0.00    -0.283 N 
ATOM     36  H   UNL     1      -3.826  -2.305   3.380  0.00  0.00    +0.155 HD
ATOM     37  N   UNL     1      -4.224   0.155   3.887  0.00  0.00    -0.214 NA
BRANCH   4   3
ATOM      1  C   UNL     1      -1.684   3.354   6.093  0.00  0.00    +0.020 A 
ATOM      2  C   UNL     1      -2.805   2.482   5.829  0.00  0.00    +0.013 A 
ATOM      3  C   UNL     1      -3.354   2.363   4.484  0.00  0.00    +0.019 A 
ATOM     38  C   UNL     1      -2.740   3.144   3.421  0.00  0.00    +0.120 A 
ATOM     39  N   UNL     1      -1.662   3.976   3.706  0.00  0.00    -0.263 NA
ATOM     40  C   UNL     1      -1.127   4.101   4.997  0.00  0.00    +0.111 A 
ENDBRANCH   4   3
ENDBRANCH  10   9
BRANCH  12  13
ATOM     13  N   UNL     1      -7.344  -4.651  -0.063  0.00  0.00    -0.281 N 
ATOM     14  C   UNL     1      -6.704  -5.565  -0.884  0.00  0.00    +0.248 C 
ATOM     30  O   UNL     1      -5.623  -6.078  -0.636  0.00  0.00    -0.270 OA
ATOM     31  H   UNL     1      -8.136  -4.156  -0.474  0.00  0.00    +0.155 HD
BRANCH  14  15
ATOM     15  C   UNL     1      -7.352  -5.954  -2.173  0.00  0.00    +0.037 A 
ATOM     16  C   UNL     1      -8.438  -5.157  -2.749  0.00  0.00    +0.013 A 
ATOM     17  C   UNL     1      -9.057  -5.564  -3.985  0.00  0.00    +0.005 A 
ATOM     18  C   UNL     1      -8.590  -6.776  -4.655  0.00  0.00    -0.033 A 
ATOM     28  C   UNL     1      -7.507  -7.545  -4.064  0.00  0.00    +0.005 A 
ATOM     29  C   UNL     1      -6.899  -7.149  -2.852  0.00  0.00    +0.013 A 
BRANCH  18  19
ATOM     19  C   UNL     1      -9.206  -7.297  -5.967  0.00  0.00    +0.119 C 
BRANCH  19  20
ATOM     20  N   UNL     1     -10.679  -7.127  -6.145  0.00  0.00    -0.302 NA
ATOM     21  C   UNL     1     -11.479  -8.109  -5.284  0.00  0.00    +0.066 C 
ATOM     22  C   UNL     1     -13.018  -7.903  -5.465  0.00  0.00    -0.064 C 
ATOM     23  N   UNL     1     -13.380  -8.059  -6.943  0.00  0.00    +0.379 N 
ATOM     24  C   UNL     1     -14.834  -7.923  -7.109  0.00  0.00    -0.096 C 
ATOM     25  H   UNL     1     -13.099  -9.093  -7.252  0.00  0.00    -0.082 HD
ATOM     26  C   UNL     1     -12.587  -7.089  -7.807  0.00  0.00    -0.064 C 
ATOM     27  C   UNL     1     -11.059  -7.282  -7.597  0.00  0.00    +0.066 C 
ENDBRANCH  19  20
ENDBRANCH  18  19
ENDBRANCH  14  15
ENDBRANCH  12  13
TORSDOF 6
ENDMDL
MODEL 5
REMARK VINA RESULT:      -6.7     16.124     21.484
REMARK  Name = C:\Users\Docking\Desktop\test protocol\1iep_ligandH.pdb
REMARK  8 active torsions:
REMARK  status: ('A' for Active; 'I' for Inactive)
REMARK    1  A    between atoms: _5  and  _11
REMARK    2  A    between atoms: _19  and  _21
REMARK    3  A    between atoms: _22  and  _66
REMARK    4  A    between atoms: _27  and  _30
REMARK    5  A    between atoms: _32  and  _33
REMARK    6  A    between atoms: _38  and  _43
REMARK    7  A    between atoms: _43  and  _46
REMARK    8  A    between atoms: _53  and  _55
REMARK                            x       y       z     vdW  Elec       q    Type
REMARK                         _______ _______ _______ _____ _____    ______ ____
ROOT
ATOM     10  C   UNL     1      -2.676   1.393   3.580  0.00  0.00    +0.038 A 
ATOM     11  C   UNL     1      -4.009   1.006   3.288  0.00  0.00    +0.047 A 
ATOM     12  C   UNL     1      -5.134   1.569   4.019  0.00  0.00    +0.035 A 
ATOM     32  C   UNL     1      -4.865   2.527   5.039  0.00  0.00    +0.024 A 
ATOM     33  C   UNL     1      -3.516   2.931   5.350  0.00  0.00    +0.007 A 
ATOM     34  C   UNL     1      -2.403   2.377   4.634  0.00  0.00    -0.029 A 
ATOM     35  C   UNL     1      -0.978   2.843   5.014  0.00  0.00    +0.045 C 
ENDROOT
BRANCH  10   9
ATOM      4  C   UNL     1       0.415  -2.170   2.692  0.00  0.00    +0.077 A 
ATOM      5  C   UNL     1      -0.069  -2.944   3.798  0.00  0.00    +0.048 A 
ATOM      6  C   UNL     1      -1.109  -2.387   4.575  0.00  0.00    +0.116 A 
ATOM      7  N   UNL     1      -1.620  -1.147   4.260  0.00  0.00    -0.223 NA
ATOM      8  C   UNL     1      -1.130  -0.425   3.187  0.00  0.00    +0.220 A 
ATOM      9  N   UNL     1      -1.634   0.821   2.847  0.00  0.00    -0.283 N 
ATOM     36  H   UNL     1      -1.240   1.325   2.053  0.00  0.00    +0.155 HD
ATOM     37  N   UNL     1      -0.136  -0.935   2.430  0.00  0.00    -0.214 NA
BRANCH   4   3
ATOM      1  C   UNL     1       2.540  -2.899  -0.510  0.00  0.00    +0.020 A 
ATOM      2  C   UNL     1       1.457  -2.442   0.330  0.00  0.00    +0.013 A 
ATOM      3  C   UNL     1       1.508  -2.624   1.775  0.00  0.00    +0.019 A 
ATOM     38  C   UNL     1       2.678  -3.277   2.343  0.00  0.00    +0.120 A 
ATOM     39  N   UNL     1       3.705  -3.708   1.509  0.00  0.00    -0.263 NA
ATOM     40  C   UNL     1       3.666  -3.540   0.117  0.00  0.00    +0.111 A 
ENDBRANCH   4   3
ENDBRANCH  10   9
BRANCH  12  13
ATOM     13  N   UNL     1      -6.508   1.208   3.772  0.00  0.00    -0.281 N 
ATOM     14  C   UNL     1      -6.988   0.158   3.006  0.00  0.00    +0.248 C 
ATOM     30  O   UNL     1      -6.306  -0.507   2.240  0.00  0.00    -0.270 OA
ATOM     31  H   UNL     1      -7.212   1.798   4.215  0.00  0.00    +0.155 HD
BRANCH  14  15
ATOM     15  C   UNL     1      -8.437  -0.196   3.094  0.00  0.00    +0.037 A 
ATOM     16  C   UNL     1      -9.239   0.168   4.265  0.00  0.00    +0.013 A 
ATOM     17  C   UNL     1     -10.631  -0.200   4.332  0.00  0.00    +0.005 A 
ATOM     18  C   UNL     1     -11.231  -0.937   3.222  0.00  0.00    -0.033 A 
ATOM     28  C   UNL     1     -10.414  -1.281   2.070  0.00  0.00    +0.005 A 
ATOM     29  C   UNL     1      -9.049  -0.923   2.002  0.00  0.00    +0.013 A 
BRANCH  18  19
ATOM     19  C   UNL     1     -12.703  -1.390   3.217  0.00  0.00    +0.119 C 
BRANCH  19  20
ATOM     20  N   UNL     1     -13.732  -0.366   2.866  0.00  0.00    -0.302 NA
ATOM     21  C   UNL     1     -15.074  -1.004   2.497  0.00  0.00    +0.066 C 
ATOM     22  C   UNL     1     -16.145   0.082   2.154  0.00  0.00    -0.064 C 
ATOM     23  N   UNL     1     -15.630   0.959   1.012  0.00  0.00    +0.379 N 
ATOM     24  C   UNL     1     -16.659   1.945   0.648  0.00  0.00    -0.096 C 
ATOM     25  H   UNL     1     -15.465   0.300   0.128  0.00  0.00    -0.082 HD
ATOM     26  C   UNL     1     -14.294   1.595   1.369  0.00  0.00    -0.064 C 
ATOM     27  C   UNL     1     -13.246   0.509   1.736  0.00  0.00    +0.066 C 
ENDBRANCH  19  20
ENDBRANCH  18  19
ENDBRANCH  14  15
ENDBRANCH  12  13
TORSDOF 6
ENDMDL
