MODEL 1
REMARK VINA RESULT:      -7.3      0.000      0.000
REMARK  Name = C:\Users\Docking\Desktop\test protocol\1iep_ligandH.pdb
REMARK  8 active torsions:
REMARK  status: ('A' for Active; 'I' for Inactive)
REMARK    1  A    between atoms: _5  and  _11
REMARK    2  A    between atoms: _19  and  _21
REMARK    3  A    between atoms: _22  and  _66
REMARK    4  A    between atoms: _27  and  _30
REMARK    5  A    between atoms: _32  and  _33
REMARK    6  A    between atoms: _38  and  _43
REMARK    7  A    between atoms: _43  and  _46
REMARK    8  A    between atoms: _53  and  _55
REMARK                            x       y       z     vdW  Elec       q    Type
REMARK                         _______ _______ _______ _____ _____    ______ ____
ROOT
ATOM     10  C   UNL     1      28.633 -18.183   5.982  0.00  0.00    +0.038 A 
ATOM     11  C   UNL     1      29.206 -16.890   5.876  0.00  0.00    +0.047 A 
ATOM     12  C   UNL     1      30.583 -16.642   6.273  0.00  0.00    +0.035 A 
ATOM     32  C   UNL     1      31.350 -17.735   6.773  0.00  0.00    +0.024 A 
ATOM     33  C   UNL     1      30.783 -19.056   6.888  0.00  0.00    +0.007 A 
ATOM     34  C   UNL     1      29.424 -19.306   6.500  0.00  0.00    -0.029 A 
ATOM     35  C   UNL     1      28.867 -20.741   6.651  0.00  0.00    +0.045 C 
ENDROOT
BRANCH  10   9
ATOM      4  C   UNL     1      25.312 -19.341   2.716  0.00  0.00    +0.077 A 
ATOM      5  C   UNL     1      26.303 -19.578   1.706  0.00  0.00    +0.048 A 
ATOM      6  C   UNL     1      27.655 -19.384   2.066  0.00  0.00    +0.116 A 
ATOM      7  N   UNL     1      27.981 -18.983   3.343  0.00  0.00    -0.223 NA
ATOM      8  C   UNL     1      27.001 -18.761   4.293  0.00  0.00    +0.220 A 
ATOM      9  N   UNL     1      27.306 -18.365   5.586  0.00  0.00    -0.283 N 
ATOM     36  H   UNL     1      26.554 -18.204   6.255  0.00  0.00    +0.155 HD
ATOM     37  N   UNL     1      25.702 -18.938   3.974  0.00  0.00    -0.214 NA
BRANCH   4   3
ATOM      1  C   UNL     1      21.834 -19.880   1.009  0.00  0.00    +0.020 A 
ATOM      2  C   UNL     1      23.262 -19.726   1.172  0.00  0.00    +0.013 A 
ATOM      3  C   UNL     1      23.841 -19.506   2.491  0.00  0.00    +0.019 A 
ATOM     38  C   UNL     1      22.942 -19.447   3.633  0.00  0.00    +0.120 A 
ATOM     39  N   UNL     1      21.571 -19.597   3.445  0.00  0.00    -0.263 NA
ATOM     40  C   UNL     1      21.002 -19.808   2.181  0.00  0.00    +0.111 A 
ENDBRANCH   4   3
ENDBRANCH  10   9
BRANCH  12  13
ATOM     13  N   UNL     1      31.216 -15.348   6.196  0.00  0.00    -0.281 N 
ATOM     14  C   UNL     1      31.272 -14.368   7.173  0.00  0.00    +0.248 C 
ATOM     30  O   UNL     1      30.598 -14.369   8.193  0.00  0.00    -0.270 OA
ATOM     31  H   UNL     1      31.679 -15.129   5.314  0.00  0.00    +0.155 HD
BRANCH  14  15
ATOM     15  C   UNL     1      32.199 -13.211   6.983  0.00  0.00    +0.037 A 
ATOM     16  C   UNL     1      32.718 -12.457   8.127  0.00  0.00    +0.013 A 
ATOM     17  C   UNL     1      33.598 -11.335   7.914  0.00  0.00    +0.005 A 
ATOM     18  C   UNL     1      33.964 -10.960   6.550  0.00  0.00    -0.033 A 
ATOM     28  C   UNL     1      33.438 -11.729   5.434  0.00  0.00    +0.005 A 
ATOM     29  C   UNL     1      32.575 -12.829   5.638  0.00  0.00    +0.013 A 
BRANCH  18  19
ATOM     19  C   UNL     1      34.879  -9.764   6.229  0.00  0.00    +0.119 C 
BRANCH  19  20
ATOM     20  N   UNL     1      35.200  -9.515   4.792  0.00  0.00    -0.302 NA
ATOM     21  C   UNL     1      36.677  -9.768   4.480  0.00  0.00    +0.066 C 
ATOM     22  C   UNL     1      36.990  -9.525   2.968  0.00  0.00    -0.064 C 
ATOM     23  N   UNL     1      36.594  -8.096   2.592  0.00  0.00    +0.379 N 
ATOM     24  C   UNL     1      36.940  -7.845   1.185  0.00  0.00    -0.096 C 
ATOM     25  H   UNL     1      37.200  -7.401   3.219  0.00  0.00    -0.082 HD
ATOM     26  C   UNL     1      35.127  -7.835   2.901  0.00  0.00    -0.064 C 
ATOM     27  C   UNL     1      34.821  -8.108   4.400  0.00  0.00    +0.066 C 
ENDBRANCH  19  20
ENDBRANCH  18  19
ENDBRANCH  14  15
ENDBRANCH  12  13
TORSDOF 6
ENDMDL
MODEL 2
REMARK VINA RESULT:      -7.3      2.187     12.857
REMARK  Name = C:\Users\Docking\Desktop\test protocol\1iep_ligandH.pdb
REMARK  8 active torsions:
REMARK  status: ('A' for Active; 'I' for Inactive)
REMARK    1  A    between atoms: _5  and  _11
REMARK    2  A    between atoms: _19  and  _21
REMARK    3  A    between atoms: _22  and  _66
REMARK    4  A    between atoms: _27  and  _30
REMARK    5  A    between atoms: _32  and  _33
REMARK    6  A    between atoms: _38  and  _43
REMARK    7  A    between atoms: _43  and  _46
REMARK    8  A    between atoms: _53  and  _55
REMARK                            x       y       z     vdW  Elec       q    Type
REMARK                         _______ _______ _______ _____ _____    ______ ____
ROOT
ATOM     10  C   UNL     1      30.441 -17.262   5.849  0.00  0.00    +0.038 A 
ATOM     11  C   UNL     1      29.167 -17.359   5.235  0.00  0.00    +0.047 A 
ATOM     12  C   UNL     1      28.289 -18.489   5.499  0.00  0.00    +0.035 A 
ATOM     32  C   UNL     1      28.741 -19.501   6.395  0.00  0.00    +0.024 A 
ATOM     33  C   UNL     1      30.034 -19.418   7.027  0.00  0.00    +0.007 A 
ATOM     34  C   UNL     1      30.905 -18.308   6.769  0.00  0.00    -0.029 A 
ATOM     35  C   UNL     1      32.284 -18.274   7.469  0.00  0.00    +0.045 C 
ENDROOT
BRANCH  10   9
ATOM      4  C   UNL     1      32.084 -12.858   6.819  0.00  0.00    +0.077 A 
ATOM      5  C   UNL     1      31.256 -12.741   7.984  0.00  0.00    +0.048 A 
ATOM      6  C   UNL     1      30.416 -13.834   8.295  0.00  0.00    +0.116 A 
ATOM      7  N   UNL     1      30.413 -14.955   7.494  0.00  0.00    -0.223 NA
ATOM      8  C   UNL     1      31.224 -15.034   6.376  0.00  0.00    +0.220 A 
ATOM      9  N   UNL     1      31.243 -16.155   5.561  0.00  0.00    -0.283 N 
ATOM     36  H   UNL     1      31.849 -16.172   4.741  0.00  0.00    +0.155 HD
ATOM     37  N   UNL     1      32.033 -14.003   6.057  0.00  0.00    -0.214 NA
BRANCH   4   3
ATOM      1  C   UNL     1      35.194 -10.506   6.510  0.00  0.00    +0.020 A 
ATOM      2  C   UNL     1      34.320 -11.551   6.991  0.00  0.00    +0.013 A 
ATOM      3  C   UNL     1      33.028 -11.789   6.361  0.00  0.00    +0.019 A 
ATOM     38  C   UNL     1      32.647 -10.946   5.238  0.00  0.00    +0.120 A 
ATOM     39  N   UNL     1      33.508  -9.946   4.797  0.00  0.00    -0.263 NA
ATOM     40  C   UNL     1      34.754  -9.707   5.397  0.00  0.00    +0.111 A 
ENDBRANCH   4   3
ENDBRANCH  10   9
BRANCH  12  13
ATOM     13  N   UNL     1      26.987 -18.646   4.898  0.00  0.00    -0.281 N 
ATOM     14  C   UNL     1      26.672 -18.702   3.551  0.00  0.00    +0.248 C 
ATOM     30  O   UNL     1      27.443 -18.410   2.648  0.00  0.00    -0.270 OA
ATOM     31  H   UNL     1      26.203 -18.726   5.546  0.00  0.00    +0.155 HD
BRANCH  14  15
ATOM     15  C   UNL     1      25.298 -19.131   3.148  0.00  0.00    +0.037 A 
ATOM     16  C   UNL     1      25.005 -19.548   1.774  0.00  0.00    +0.013 A 
ATOM     17  C   UNL     1      23.667 -19.941   1.408  0.00  0.00    +0.005 A 
ATOM     18  C   UNL     1      22.612 -19.919   2.418  0.00  0.00    -0.033 A 
ATOM     28  C   UNL     1      22.932 -19.506   3.774  0.00  0.00    +0.005 A 
ATOM     29  C   UNL     1      24.242 -19.119   4.137  0.00  0.00    +0.013 A 
BRANCH  18  19
ATOM     19  C   UNL     1      21.152 -20.301   2.111  0.00  0.00    +0.119 C 
BRANCH  19  20
ATOM     20  N   UNL     1      20.126 -19.222   2.217  0.00  0.00    -0.302 NA
ATOM     21  C   UNL     1      18.700 -19.774   2.129  0.00  0.00    +0.066 C 
ATOM     22  C   UNL     1      17.639 -18.633   2.265  0.00  0.00    -0.064 C 
ATOM     23  N   UNL     1      17.882 -17.583   1.179  0.00  0.00    +0.379 N 
ATOM     24  C   UNL     1      16.850 -16.539   1.267  0.00  0.00    -0.096 C 
ATOM     25  H   UNL     1      17.770 -18.087   0.191  0.00  0.00    -0.082 HD
ATOM     26  C   UNL     1      19.298 -17.031   1.257  0.00  0.00    -0.064 C 
ATOM     27  C   UNL     1      20.344 -18.176   1.152  0.00  0.00    +0.066 C 
ENDBRANCH  19  20
ENDBRANCH  18  19
ENDBRANCH  14  15
ENDBRANCH  12  13
TORSDOF 6
ENDMDL
MODEL 3
REMARK VINA RESULT:      -7.2      2.217     12.467
REMARK  Name = C:\Users\Docking\Desktop\test protocol\1iep_ligandH.pdb
REMARK  8 active torsions:
REMARK  status: ('A' for Active; 'I' for Inactive)
REMARK    1  A    between atoms: _5  and  _11
REMARK    2  A    between atoms: _19  and  _21
REMARK    3  A    between atoms: _22  and  _66
REMARK    4  A    between atoms: _27  and  _30
REMARK    5  A    between atoms: _32  and  _33
REMARK    6  A    between atoms: _38  and  _43
REMARK    7  A    between atoms: _43  and  _46
REMARK    8  A    between atoms: _53  and  _55
REMARK                            x       y       z     vdW  Elec       q    Type
REMARK                         _______ _______ _______ _____ _____    ______ ____
ROOT
ATOM     10  C   UNL     1      30.514 -17.181   5.858  0.00  0.00    +0.038 A 
ATOM     11  C   UNL     1      29.258 -17.304   5.211  0.00  0.00    +0.047 A 
ATOM     12  C   UNL     1      28.388 -18.441   5.467  0.00  0.00    +0.035 A 
ATOM     32  C   UNL     1      28.827 -19.434   6.389  0.00  0.00    +0.024 A 
ATOM     33  C   UNL     1      30.102 -19.326   7.055  0.00  0.00    +0.007 A 
ATOM     34  C   UNL     1      30.966 -18.208   6.805  0.00  0.00    -0.029 A 
ATOM     35  C   UNL     1      32.324 -18.147   7.542  0.00  0.00    +0.045 C 
ENDROOT
BRANCH  10   9
ATOM      4  C   UNL     1      32.100 -12.756   6.829  0.00  0.00    +0.077 A 
ATOM      5  C   UNL     1      31.253 -12.641   7.981  0.00  0.00    +0.048 A 
ATOM      6  C   UNL     1      30.419 -13.741   8.285  0.00  0.00    +0.116 A 
ATOM      7  N   UNL     1      30.439 -14.866   7.490  0.00  0.00    -0.223 NA
ATOM      8  C   UNL     1      31.267 -14.944   6.385  0.00  0.00    +0.220 A 
ATOM      9  N   UNL     1      31.309 -16.068   5.576  0.00  0.00    -0.283 N 
ATOM     36  H   UNL     1      31.928 -16.084   4.765  0.00  0.00    +0.155 HD
ATOM     37  N   UNL     1      32.072 -13.907   6.072  0.00  0.00    -0.214 NA
BRANCH   4   3
ATOM      1  C   UNL     1      35.174 -10.350   6.579  0.00  0.00    +0.020 A 
ATOM      2  C   UNL     1      34.302 -11.399   7.053  0.00  0.00    +0.013 A 
ATOM      3  C   UNL     1      33.040 -11.681   6.380  0.00  0.00    +0.019 A 
ATOM     38  C   UNL     1      32.689 -10.877   5.219  0.00  0.00    +0.120 A 
ATOM     39  N   UNL     1      33.548  -9.872   4.786  0.00  0.00    -0.263 NA
ATOM     40  C   UNL     1      34.763  -9.591   5.427  0.00  0.00    +0.111 A 
ENDBRANCH   4   3
ENDBRANCH  10   9
BRANCH  12  13
ATOM     13  N   UNL     1      27.105 -18.623   4.833  0.00  0.00    -0.281 N 
ATOM     14  C   UNL     1      26.815 -18.614   3.479  0.00  0.00    +0.248 C 
ATOM     30  O   UNL     1      27.585 -18.233   2.610  0.00  0.00    -0.270 OA
ATOM     31  H   UNL     1      26.315 -18.777   5.460  0.00  0.00    +0.155 HD
BRANCH  14  15
ATOM     15  C   UNL     1      25.470 -19.082   3.025  0.00  0.00    +0.037 A 
ATOM     16  C   UNL     1      24.307 -19.027   3.914  0.00  0.00    +0.013 A 
ATOM     17  C   UNL     1      23.024 -19.501   3.458  0.00  0.00    +0.005 A 
ATOM     18  C   UNL     1      22.898 -20.033   2.103  0.00  0.00    -0.033 A 
ATOM     28  C   UNL     1      24.068 -20.070   1.240  0.00  0.00    +0.005 A 
ATOM     29  C   UNL     1      25.326 -19.608   1.685  0.00  0.00    +0.013 A 
BRANCH  18  19
ATOM     19  C   UNL     1      21.574 -20.580   1.538  0.00  0.00    +0.119 C 
BRANCH  19  20
ATOM     20  N   UNL     1      21.023 -19.914   0.320  0.00  0.00    -0.302 NA
ATOM     21  C   UNL     1      21.745 -20.359  -0.954  0.00  0.00    +0.066 C 
ATOM     22  C   UNL     1      21.142 -19.671  -2.221  0.00  0.00    -0.064 C 
ATOM     23  N   UNL     1      21.218 -18.152  -2.058  0.00  0.00    +0.379 N 
ATOM     24  C   UNL     1      20.704 -17.501  -3.272  0.00  0.00    -0.096 C 
ATOM     25  H   UNL     1      22.294 -17.877  -1.956  0.00  0.00    -0.082 HD
ATOM     26  C   UNL     1      20.504 -17.700  -0.791  0.00  0.00    -0.064 C 
ATOM     27  C   UNL     1      21.093 -18.413   0.458  0.00  0.00    +0.066 C 
ENDBRANCH  19  20
ENDBRANCH  18  19
ENDBRANCH  14  15
ENDBRANCH  12  13
TORSDOF 6
ENDMDL
MODEL 4
REMARK VINA RESULT:      -7.1      2.625     12.325
REMARK  Name = C:\Users\Docking\Desktop\test protocol\1iep_ligandH.pdb
REMARK  8 active torsions:
REMARK  status: ('A' for Active; 'I' for Inactive)
REMARK    1  A    between atoms: _5  and  _11
REMARK    2  A    between atoms: _19  and  _21
REMARK    3  A    between atoms: _22  and  _66
REMARK    4  A    between atoms: _27  and  _30
REMARK    5  A    between atoms: _32  and  _33
REMARK    6  A    between atoms: _38  and  _43
REMARK    7  A    between atoms: _43  and  _46
REMARK    8  A    between atoms: _53  and  _55
REMARK                            x       y       z     vdW  Elec       q    Type
REMARK                         _______ _______ _______ _____ _____    ______ ____
ROOT
ATOM     10  C   UNL     1      30.425 -15.587   7.395  0.00  0.00    +0.038 A 
ATOM     11  C   UNL     1      29.610 -15.885   6.273  0.00  0.00    +0.047 A 
ATOM     12  C   UNL     1      28.961 -17.180   6.138  0.00  0.00    +0.035 A 
ATOM     32  C   UNL     1      29.162 -18.147   7.165  0.00  0.00    +0.024 A 
ATOM     33  C   UNL     1      29.988 -17.861   8.312  0.00  0.00    +0.007 A 
ATOM     34  C   UNL     1      30.633 -16.587   8.450  0.00  0.00    -0.029 A 
ATOM     35  C   UNL     1      31.512 -16.337   9.697  0.00  0.00    +0.045 C 
ENDROOT
BRANCH  10   9
ATOM      4  C   UNL     1      33.966 -12.512   6.371  0.00  0.00    +0.077 A 
ATOM      5  C   UNL     1      34.697 -13.506   5.639  0.00  0.00    +0.048 A 
ATOM      6  C   UNL     1      34.131 -14.798   5.556  0.00  0.00    +0.116 A 
ATOM      7  N   UNL     1      32.923 -15.065   6.163  0.00  0.00    -0.223 NA
ATOM      8  C   UNL     1      32.244 -14.084   6.863  0.00  0.00    +0.220 A 
ATOM      9  N   UNL     1      31.024 -14.328   7.474  0.00  0.00    -0.283 N 
ATOM     36  H   UNL     1      30.559 -13.579   7.987  0.00  0.00    +0.155 HD
ATOM     37  N   UNL     1      32.764 -12.842   6.958  0.00  0.00    -0.214 NA
BRANCH   4   3
ATOM      1  C   UNL     1      35.299  -8.905   5.654  0.00  0.00    +0.020 A 
ATOM      2  C   UNL     1      34.859 -10.263   5.432  0.00  0.00    +0.013 A 
ATOM      3  C   UNL     1      34.432 -11.100   6.546  0.00  0.00    +0.019 A 
ATOM     38  C   UNL     1      34.462 -10.528   7.884  0.00  0.00    +0.120 A 
ATOM     39  N   UNL     1      34.893  -9.218   8.068  0.00  0.00    -0.263 NA
ATOM     40  C   UNL     1      35.308  -8.404   7.003  0.00  0.00    +0.111 A 
ENDBRANCH   4   3
ENDBRANCH  10   9
BRANCH  12  13
ATOM     13  N   UNL     1      28.129 -17.543   5.017  0.00  0.00    -0.281 N 
ATOM     14  C   UNL     1      28.513 -18.152   3.834  0.00  0.00    +0.248 C 
ATOM     30  O   UNL     1      29.671 -18.285   3.469  0.00  0.00    -0.270 OA
ATOM     31  H   UNL     1      27.137 -17.324   5.108  0.00  0.00    +0.155 HD
BRANCH  14  15
ATOM     15  C   UNL     1      27.456 -18.677   2.916  0.00  0.00    +0.037 A 
ATOM     16  C   UNL     1      26.084 -18.894   3.383  0.00  0.00    +0.013 A 
ATOM     17  C   UNL     1      25.088 -19.417   2.482  0.00  0.00    +0.005 A 
ATOM     18  C   UNL     1      25.460 -19.725   1.103  0.00  0.00    -0.033 A 
ATOM     28  C   UNL     1      26.827 -19.495   0.665  0.00  0.00    +0.005 A 
ATOM     29  C   UNL     1      27.806 -18.983   1.546  0.00  0.00    +0.013 A 
BRANCH  18  19
ATOM     19  C   UNL     1      24.468 -20.307   0.079  0.00  0.00    +0.119 C 
BRANCH  19  20
ATOM     20  N   UNL     1      23.731 -19.337  -0.785  0.00  0.00    -0.302 NA
ATOM     21  C   UNL     1      22.242 -19.271  -0.434  0.00  0.00    +0.066 C 
ATOM     22  C   UNL     1      21.491 -18.235  -1.333  0.00  0.00    -0.064 C 
ATOM     23  N   UNL     1      21.684 -18.606  -2.804  0.00  0.00    +0.379 N 
ATOM     24  C   UNL     1      20.931 -17.668  -3.649  0.00  0.00    -0.096 C 
ATOM     25  H   UNL     1      21.251 -19.622  -2.956  0.00  0.00    -0.082 HD
ATOM     26  C   UNL     1      23.162 -18.677  -3.161  0.00  0.00    -0.064 C 
ATOM     27  C   UNL     1      23.905 -19.687  -2.243  0.00  0.00    +0.066 C 
ENDBRANCH  19  20
ENDBRANCH  18  19
ENDBRANCH  14  15
ENDBRANCH  12  13
TORSDOF 6
ENDMDL
MODEL 5
REMARK VINA RESULT:      -6.9      4.986     13.521
REMARK  Name = C:\Users\Docking\Desktop\test protocol\1iep_ligandH.pdb
REMARK  8 active torsions:
REMARK  status: ('A' for Active; 'I' for Inactive)
REMARK    1  A    between atoms: _5  and  _11
REMARK    2  A    between atoms: _19  and  _21
REMARK    3  A    between atoms: _22  and  _66
REMARK    4  A    between atoms: _27  and  _30
REMARK    5  A    between atoms: _32  and  _33
REMARK    6  A    between atoms: _38  and  _43
REMARK    7  A    between atoms: _43  and  _46
REMARK    8  A    between atoms: _53  and  _55
REMARK                            x       y       z     vdW  Elec       q    Type
REMARK                         _______ _______ _______ _____ _____    ______ ____
ROOT
ATOM     10  C   UNL     1      27.150 -18.465   3.161  0.00  0.00    +0.038 A 
ATOM     11  C   UNL     1      25.749 -18.643   3.293  0.00  0.00    +0.047 A 
ATOM     12  C   UNL     1      25.020 -19.548   2.417  0.00  0.00    +0.035 A 
ATOM     32  C   UNL     1      25.751 -20.258   1.420  0.00  0.00    +0.024 A 
ATOM     33  C   UNL     1      27.175 -20.088   1.272  0.00  0.00    +0.007 A 
ATOM     34  C   UNL     1      27.898 -19.195   2.131  0.00  0.00    -0.029 A 
ATOM     35  C   UNL     1      29.424 -19.047   1.923  0.00  0.00    +0.045 C 
ENDROOT
BRANCH  10   9
ATOM      4  C   UNL     1      29.582 -17.512   7.188  0.00  0.00    +0.077 A 
ATOM      5  C   UNL     1      29.532 -18.881   7.613  0.00  0.00    +0.048 A 
ATOM      6  C   UNL     1      28.865 -19.798   6.769  0.00  0.00    +0.116 A 
ATOM      7  N   UNL     1      28.294 -19.366   5.592  0.00  0.00    -0.223 NA
ATOM      8  C   UNL     1      28.359 -18.038   5.213  0.00  0.00    +0.220 A 
ATOM      9  N   UNL     1      27.799 -17.583   4.029  0.00  0.00    -0.283 N 
ATOM     36  H   UNL     1      27.862 -16.594   3.788  0.00  0.00    +0.155 HD
ATOM     37  N   UNL     1      28.989 -17.143   6.001  0.00  0.00    -0.214 NA
BRANCH   4   3
ATOM      1  C   UNL     1      30.931 -14.022   8.329  0.00  0.00    +0.020 A 
ATOM      2  C   UNL     1      30.268 -15.033   7.538  0.00  0.00    +0.013 A 
ATOM      3  C   UNL     1      30.254 -16.425   7.969  0.00  0.00    +0.019 A 
ATOM     38  C   UNL     1      30.925 -16.764   9.215  0.00  0.00    +0.120 A 
ATOM     39  N   UNL     1      31.556 -15.769   9.955  0.00  0.00    -0.263 NA
ATOM     40  C   UNL     1      31.578 -14.426   9.549  0.00  0.00    +0.111 A 
ENDBRANCH   4   3
ENDBRANCH  10   9
BRANCH  12  13
ATOM     13  N   UNL     1      23.597 -19.763   2.498  0.00  0.00    -0.281 N 
ATOM     14  C   UNL     1      22.860 -20.189   3.592  0.00  0.00    +0.248 C 
ATOM     30  O   UNL     1      23.345 -20.656   4.611  0.00  0.00    -0.270 OA
ATOM     31  H   UNL     1      23.067 -19.579   1.646  0.00  0.00    +0.155 HD
BRANCH  14  15
ATOM     15  C   UNL     1      21.370 -20.095   3.539  0.00  0.00    +0.037 A 
ATOM     16  C   UNL     1      20.522 -21.148   4.103  0.00  0.00    +0.013 A 
ATOM     17  C   UNL     1      19.086 -21.041   4.024  0.00  0.00    +0.005 A 
ATOM     18  C   UNL     1      18.490 -19.873   3.379  0.00  0.00    -0.033 A 
ATOM     28  C   UNL     1      19.355 -18.841   2.833  0.00  0.00    +0.005 A 
ATOM     29  C   UNL     1      20.762 -18.943   2.908  0.00  0.00    +0.013 A 
BRANCH  18  19
ATOM     19  C   UNL     1      16.968 -19.686   3.231  0.00  0.00    +0.119 C 
BRANCH  19  20
ATOM     20  N   UNL     1      16.324 -18.631   4.070  0.00  0.00    -0.302 NA
ATOM     21  C   UNL     1      16.113 -17.329   3.292  0.00  0.00    +0.066 C 
ATOM     22  C   UNL     1      15.418 -16.244   4.178  0.00  0.00    -0.064 C 
ATOM     23  N   UNL     1      16.260 -15.996   5.431  0.00  0.00    +0.379 N 
ATOM     24  C   UNL     1      15.639 -14.935   6.237  0.00  0.00    -0.096 C 
ATOM     25  H   UNL     1      17.259 -15.629   5.099  0.00  0.00    -0.082 HD
ATOM     26  C   UNL     1      16.477 -17.287   6.208  0.00  0.00    -0.064 C 
ATOM     27  C   UNL     1      17.142 -18.368   5.310  0.00  0.00    +0.066 C 
ENDBRANCH  19  20
ENDBRANCH  18  19
ENDBRANCH  14  15
ENDBRANCH  12  13
TORSDOF 6
ENDMDL
