MODEL 1
REMARK VINA RESULT:     -10.9      0.000      0.000
REMARK  Name = C:\Users\Docking\Desktop\test protocol\1iep_ligandH.pdb
REMARK  8 active torsions:
REMARK  status: ('A' for Active; 'I' for Inactive)
REMARK    1  A    between atoms: _5  and  _11
REMARK    2  A    between atoms: _19  and  _21
REMARK    3  A    between atoms: _22  and  _66
REMARK    4  A    between atoms: _27  and  _30
REMARK    5  A    between atoms: _32  and  _33
REMARK    6  A    between atoms: _38  and  _43
REMARK    7  A    between atoms: _43  and  _46
REMARK    8  A    between atoms: _53  and  _55
REMARK                            x       y       z     vdW  Elec       q    Type
REMARK                         _______ _______ _______ _____ _____    ______ ____
ROOT
ATOM     10  C   UNL     1      13.206   0.738   6.792  0.00  0.00    +0.038 A 
ATOM     11  C   UNL     1      12.799   0.192   8.036  0.00  0.00    +0.047 A 
ATOM     12  C   UNL     1      11.448  -0.308   8.233  0.00  0.00    +0.035 A 
ATOM     32  C   UNL     1      10.536  -0.238   7.139  0.00  0.00    +0.024 A 
ATOM     33  C   UNL     1      10.932   0.314   5.868  0.00  0.00    +0.007 A 
ATOM     34  C   UNL     1      12.264   0.811   5.669  0.00  0.00    -0.029 A 
ATOM     35  C   UNL     1      12.631   1.398   4.286  0.00  0.00    +0.045 C 
ENDROOT
BRANCH  10   9
ATOM      4  C   UNL     1      17.699   0.320   5.156  0.00  0.00    +0.077 A 
ATOM      5  C   UNL     1      17.420  -0.944   4.539  0.00  0.00    +0.048 A 
ATOM      6  C   UNL     1      16.110  -1.455   4.671  0.00  0.00    +0.116 A 
ATOM      7  N   UNL     1      15.157  -0.747   5.371  0.00  0.00    -0.223 NA
ATOM      8  C   UNL     1      15.460   0.469   5.956  0.00  0.00    +0.220 A 
ATOM      9  N   UNL     1      14.516   1.202   6.658  0.00  0.00    -0.283 N 
ATOM     36  H   UNL     1      14.781   2.091   7.082  0.00  0.00    +0.155 HD
ATOM     37  N   UNL     1      16.705   0.978   5.845  0.00  0.00    -0.214 NA
BRANCH   4   3
ATOM      1  C   UNL     1      20.565   2.876   4.408  0.00  0.00    +0.020 A 
ATOM      2  C   UNL     1      19.254   2.268   4.431  0.00  0.00    +0.013 A 
ATOM      3  C   UNL     1      19.036   0.993   5.102  0.00  0.00    +0.019 A 
ATOM     38  C   UNL     1      20.173   0.354   5.746  0.00  0.00    +0.120 A 
ATOM     39  N   UNL     1      21.424   0.962   5.706  0.00  0.00    -0.263 NA
ATOM     40  C   UNL     1      21.647   2.188   5.062  0.00  0.00    +0.111 A 
ENDBRANCH   4   3
ENDBRANCH  10   9
BRANCH  12  13
ATOM     13  N   UNL     1      10.975  -0.865   9.476  0.00  0.00    -0.281 N 
ATOM     14  C   UNL     1      11.362  -2.051  10.079  0.00  0.00    +0.248 C 
ATOM     30  O   UNL     1      12.020  -2.922   9.531  0.00  0.00    -0.270 OA
ATOM     31  H   UNL     1      10.271  -0.319   9.972  0.00  0.00    +0.155 HD
BRANCH  14  15
ATOM     15  C   UNL     1      10.943  -2.313  11.490  0.00  0.00    +0.037 A 
ATOM     16  C   UNL     1      10.733  -3.678  11.979  0.00  0.00    +0.013 A 
ATOM     17  C   UNL     1      10.313  -3.902  13.339  0.00  0.00    +0.005 A 
ATOM     18  C   UNL     1      10.103  -2.757  14.222  0.00  0.00    -0.033 A 
ATOM     28  C   UNL     1      10.324  -1.414  13.712  0.00  0.00    +0.005 A 
ATOM     29  C   UNL     1      10.734  -1.190  12.379  0.00  0.00    +0.013 A 
BRANCH  18  19
ATOM     19  C   UNL     1       9.634  -2.902  15.682  0.00  0.00    +0.119 C 
BRANCH  19  20
ATOM     20  N   UNL     1       9.978  -1.794  16.623  0.00  0.00    -0.302 NA
ATOM     21  C   UNL     1      11.426  -1.884  17.112  0.00  0.00    +0.066 C 
ATOM     22  C   UNL     1      11.775  -0.705  18.078  0.00  0.00    -0.064 C 
ATOM     23  N   UNL     1      10.803  -0.712  19.259  0.00  0.00    +0.379 N 
ATOM     24  C   UNL     1      11.165   0.359  20.198  0.00  0.00    -0.096 C 
ATOM     25  H   UNL     1      10.925  -1.684  19.791  0.00  0.00    -0.082 HD
ATOM     26  C   UNL     1       9.361  -0.626  18.781  0.00  0.00    -0.064 C 
ATOM     27  C   UNL     1       9.033  -1.785  17.799  0.00  0.00    +0.066 C 
ENDBRANCH  19  20
ENDBRANCH  18  19
ENDBRANCH  14  15
ENDBRANCH  12  13
TORSDOF 6
ENDMDL
MODEL 2
REMARK VINA RESULT:     -10.4      1.562      2.116
REMARK  Name = C:\Users\Docking\Desktop\test protocol\1iep_ligandH.pdb
REMARK  8 active torsions:
REMARK  status: ('A' for Active; 'I' for Inactive)
REMARK    1  A    between atoms: _5  and  _11
REMARK    2  A    between atoms: _19  and  _21
REMARK    3  A    between atoms: _22  and  _66
REMARK    4  A    between atoms: _27  and  _30
REMARK    5  A    between atoms: _32  and  _33
REMARK    6  A    between atoms: _38  and  _43
REMARK    7  A    between atoms: _43  and  _46
REMARK    8  A    between atoms: _53  and  _55
REMARK                            x       y       z     vdW  Elec       q    Type
REMARK                         _______ _______ _______ _____ _____    ______ ____
ROOT
ATOM     10  C   UNL     1      14.063  -0.623   6.528  0.00  0.00    +0.038 A 
ATOM     11  C   UNL     1      13.503  -0.986   7.780  0.00  0.00    +0.047 A 
ATOM     12  C   UNL     1      12.175  -0.537   8.168  0.00  0.00    +0.035 A 
ATOM     32  C   UNL     1      11.444   0.279   7.256  0.00  0.00    +0.024 A 
ATOM     33  C   UNL     1      11.999   0.658   5.981  0.00  0.00    +0.007 A 
ATOM     34  C   UNL     1      13.309   0.220   5.593  0.00  0.00    -0.029 A 
ATOM     35  C   UNL     1      13.856   0.662   4.216  0.00  0.00    +0.045 C 
ENDROOT
BRANCH  10   9
ATOM      4  C   UNL     1      18.603   0.111   5.153  0.00  0.00    +0.077 A 
ATOM      5  C   UNL     1      18.402   1.527   5.040  0.00  0.00    +0.048 A 
ATOM      6  C   UNL     1      17.114   2.025   5.338  0.00  0.00    +0.116 A 
ATOM      7  N   UNL     1      16.109   1.163   5.720  0.00  0.00    -0.223 NA
ATOM      8  C   UNL     1      16.336  -0.198   5.817  0.00  0.00    +0.220 A 
ATOM      9  N   UNL     1      15.342  -1.083   6.207  0.00  0.00    -0.283 N 
ATOM     36  H   UNL     1      15.548  -2.080   6.259  0.00  0.00    +0.155 HD
ATOM     37  N   UNL     1      17.557  -0.699   5.537  0.00  0.00    -0.214 NA
BRANCH   4   3
ATOM      1  C   UNL     1      21.455  -1.930   3.422  0.00  0.00    +0.020 A 
ATOM      2  C   UNL     1      20.177  -1.294   3.641  0.00  0.00    +0.013 A 
ATOM      3  C   UNL     1      19.909  -0.567   4.876  0.00  0.00    +0.019 A 
ATOM     38  C   UNL     1      20.964  -0.500   5.875  0.00  0.00    +0.120 A 
ATOM     39  N   UNL     1      22.185  -1.124   5.637  0.00  0.00    -0.263 NA
ATOM     40  C   UNL     1      22.454  -1.828   4.454  0.00  0.00    +0.111 A 
ENDBRANCH   4   3
ENDBRANCH  10   9
BRANCH  12  13
ATOM     13  N   UNL     1      11.557  -0.866   9.429  0.00  0.00    -0.281 N 
ATOM     14  C   UNL     1      11.447  -2.113  10.023  0.00  0.00    +0.248 C 
ATOM     30  O   UNL     1      11.677  -3.171   9.457  0.00  0.00    -0.270 OA
ATOM     31  H   UNL     1      11.152  -0.086   9.946  0.00  0.00    +0.155 HD
BRANCH  14  15
ATOM     15  C   UNL     1      11.005  -2.197  11.448  0.00  0.00    +0.037 A 
ATOM     16  C   UNL     1      10.899  -3.486  12.136  0.00  0.00    +0.013 A 
ATOM     17  C   UNL     1      10.453  -3.540  13.506  0.00  0.00    +0.005 A 
ATOM     18  C   UNL     1      10.110  -2.300  14.197  0.00  0.00    -0.033 A 
ATOM     28  C   UNL     1      10.229  -1.034  13.492  0.00  0.00    +0.005 A 
ATOM     29  C   UNL     1      10.665  -0.977  12.150  0.00  0.00    +0.013 A 
BRANCH  18  19
ATOM     19  C   UNL     1       9.606  -2.265  15.652  0.00  0.00    +0.119 C 
BRANCH  19  20
ATOM     20  N   UNL     1      10.306  -1.344  16.597  0.00  0.00    -0.302 NA
ATOM     21  C   UNL     1      10.057   0.128  16.254  0.00  0.00    +0.066 C 
ATOM     22  C   UNL     1      10.778   1.077  17.266  0.00  0.00    -0.064 C 
ATOM     23  N   UNL     1      12.276   0.768  17.272  0.00  0.00    +0.379 N 
ATOM     24  C   UNL     1      12.965   1.697  18.180  0.00  0.00    -0.096 C 
ATOM     25  H   UNL     1      12.663   0.950  16.243  0.00  0.00    -0.082 HD
ATOM     26  C   UNL     1      12.532  -0.695  17.609  0.00  0.00    -0.064 C 
ATOM     27  C   UNL     1      11.787  -1.629  16.616  0.00  0.00    +0.066 C 
ENDBRANCH  19  20
ENDBRANCH  18  19
ENDBRANCH  14  15
ENDBRANCH  12  13
TORSDOF 6
ENDMDL
MODEL 3
REMARK VINA RESULT:     -10.4      1.962      2.985
REMARK  Name = C:\Users\Docking\Desktop\test protocol\1iep_ligandH.pdb
REMARK  8 active torsions:
REMARK  status: ('A' for Active; 'I' for Inactive)
REMARK    1  A    between atoms: _5  and  _11
REMARK    2  A    between atoms: _19  and  _21
REMARK    3  A    between atoms: _22  and  _66
REMARK    4  A    between atoms: _27  and  _30
REMARK    5  A    between atoms: _32  and  _33
REMARK    6  A    between atoms: _38  and  _43
REMARK    7  A    between atoms: _43  and  _46
REMARK    8  A    between atoms: _53  and  _55
REMARK                            x       y       z     vdW  Elec       q    Type
REMARK                         _______ _______ _______ _____ _____    ______ ____
ROOT
ATOM     10  C   UNL     1      13.959  -0.660   6.784  0.00  0.00    +0.038 A 
ATOM     11  C   UNL     1      13.469  -1.004   8.070  0.00  0.00    +0.047 A 
ATOM     12  C   UNL     1      12.161  -0.555   8.522  0.00  0.00    +0.035 A 
ATOM     32  C   UNL     1      11.377   0.241   7.636  0.00  0.00    +0.024 A 
ATOM     33  C   UNL     1      11.860   0.600   6.326  0.00  0.00    +0.007 A 
ATOM     34  C   UNL     1      13.150   0.163   5.876  0.00  0.00    -0.029 A 
ATOM     35  C   UNL     1      13.620   0.583   4.464  0.00  0.00    +0.045 C 
ENDROOT
BRANCH  10   9
ATOM      4  C   UNL     1      18.419   0.076   5.172  0.00  0.00    +0.077 A 
ATOM      5  C   UNL     1      18.208   1.490   5.056  0.00  0.00    +0.048 A 
ATOM      6  C   UNL     1      16.934   1.987   5.414  0.00  0.00    +0.116 A 
ATOM      7  N   UNL     1      15.954   1.125   5.855  0.00  0.00    -0.223 NA
ATOM      8  C   UNL     1      16.191  -0.234   5.953  0.00  0.00    +0.220 A 
ATOM      9  N   UNL     1      15.222  -1.118   6.402  0.00  0.00    -0.283 N 
ATOM     36  H   UNL     1      15.433  -2.115   6.453  0.00  0.00    +0.155 HD
ATOM     37  N   UNL     1      17.398  -0.734   5.616  0.00  0.00    -0.214 NA
BRANCH   4   3
ATOM      1  C   UNL     1      21.230  -1.867   3.267  0.00  0.00    +0.020 A 
ATOM      2  C   UNL     1      19.964  -1.228   3.543  0.00  0.00    +0.013 A 
ATOM      3  C   UNL     1      19.712  -0.600   4.834  0.00  0.00    +0.019 A 
ATOM     38  C   UNL     1      20.771  -0.636   5.832  0.00  0.00    +0.120 A 
ATOM     39  N   UNL     1      21.979  -1.259   5.538  0.00  0.00    -0.263 NA
ATOM     40  C   UNL     1      22.232  -1.869   4.300  0.00  0.00    +0.111 A 
ENDBRANCH   4   3
ENDBRANCH  10   9
BRANCH  12  13
ATOM     13  N   UNL     1      11.615  -0.865   9.819  0.00  0.00    -0.281 N 
ATOM     14  C   UNL     1      11.396  -2.115  10.374  0.00  0.00    +0.248 C 
ATOM     30  O   UNL     1      11.440  -3.166   9.751  0.00  0.00    -0.270 OA
ATOM     31  H   UNL     1      11.357  -0.066  10.399  0.00  0.00    +0.155 HD
BRANCH  14  15
ATOM     15  C   UNL     1      11.068  -2.212  11.829  0.00  0.00    +0.037 A 
ATOM     16  C   UNL     1      10.531  -1.065  12.565  0.00  0.00    +0.013 A 
ATOM     17  C   UNL     1      10.238  -1.180  13.972  0.00  0.00    +0.005 A 
ATOM     18  C   UNL     1      10.481  -2.450  14.652  0.00  0.00    -0.033 A 
ATOM     28  C   UNL     1      11.009  -3.574  13.897  0.00  0.00    +0.005 A 
ATOM     29  C   UNL     1      11.298  -3.464  12.518  0.00  0.00    +0.013 A 
BRANCH  18  19
ATOM     19  C   UNL     1      10.218  -2.657  16.155  0.00  0.00    +0.119 C 
BRANCH  19  20
ATOM     20  N   UNL     1       8.986  -3.410  16.536  0.00  0.00    -0.302 NA
ATOM     21  C   UNL     1       8.549  -3.108  17.972  0.00  0.00    +0.066 C 
ATOM     22  C   UNL     1       7.246  -3.887  18.347  0.00  0.00    -0.064 C 
ATOM     23  N   UNL     1       7.479  -5.386  18.156  0.00  0.00    +0.379 N 
ATOM     24  C   UNL     1       6.275  -6.125  18.563  0.00  0.00    -0.096 C 
ATOM     25  H   UNL     1       8.308  -5.689  18.837  0.00  0.00    -0.082 HD
ATOM     26  C   UNL     1       7.917  -5.695  16.731  0.00  0.00    -0.064 C 
ATOM     27  C   UNL     1       9.195  -4.894  16.359  0.00  0.00    +0.066 C 
ENDBRANCH  19  20
ENDBRANCH  18  19
ENDBRANCH  14  15
ENDBRANCH  12  13
TORSDOF 6
ENDMDL
MODEL 4
REMARK VINA RESULT:     -10.4      4.460      7.570
REMARK  Name = C:\Users\Docking\Desktop\test protocol\1iep_ligandH.pdb
REMARK  8 active torsions:
REMARK  status: ('A' for Active; 'I' for Inactive)
REMARK    1  A    between atoms: _5  and  _11
REMARK    2  A    between atoms: _19  and  _21
REMARK    3  A    between atoms: _22  and  _66
REMARK    4  A    between atoms: _27  and  _30
REMARK    5  A    between atoms: _32  and  _33
REMARK    6  A    between atoms: _38  and  _43
REMARK    7  A    between atoms: _43  and  _46
REMARK    8  A    between atoms: _53  and  _55
REMARK                            x       y       z     vdW  Elec       q    Type
REMARK                         _______ _______ _______ _____ _____    ______ ____
ROOT
ATOM     10  C   UNL     1      18.901   3.023   3.609  0.00  0.00    +0.038 A 
ATOM     11  C   UNL     1      17.687   2.763   4.297  0.00  0.00    +0.047 A 
ATOM     12  C   UNL     1      17.558   1.621   5.189  0.00  0.00    +0.035 A 
ATOM     32  C   UNL     1      18.685   0.766   5.360  0.00  0.00    +0.024 A 
ATOM     33  C   UNL     1      19.925   1.014   4.668  0.00  0.00    +0.007 A 
ATOM     34  C   UNL     1      20.058   2.138   3.785  0.00  0.00    -0.029 A 
ATOM     35  C   UNL     1      21.410   2.352   3.065  0.00  0.00    +0.045 C 
ENDROOT
BRANCH  10   9
ATOM      4  C   UNL     1      18.301   7.699   2.709  0.00  0.00    +0.077 A 
ATOM      5  C   UNL     1      17.781   7.946   4.023  0.00  0.00    +0.048 A 
ATOM      6  C   UNL     1      17.678   6.841   4.898  0.00  0.00    +0.116 A 
ATOM      7  N   UNL     1      18.068   5.588   4.479  0.00  0.00    -0.223 NA
ATOM      8  C   UNL     1      18.564   5.384   3.204  0.00  0.00    +0.220 A 
ATOM      9  N   UNL     1      18.970   4.133   2.765  0.00  0.00    -0.283 N 
ATOM     36  H   UNL     1      19.323   4.023   1.815  0.00  0.00    +0.155 HD
ATOM     37  N   UNL     1      18.671   6.422   2.350  0.00  0.00    -0.214 NA
BRANCH   4   3
ATOM      1  C   UNL     1      17.729  10.848   0.460  0.00  0.00    +0.020 A 
ATOM      2  C   UNL     1      17.515   9.843   1.476  0.00  0.00    +0.013 A 
ATOM      3  C   UNL     1      18.474   8.764   1.671  0.00  0.00    +0.019 A 
ATOM     38  C   UNL     1      19.651   8.730   0.816  0.00  0.00    +0.120 A 
ATOM     39  N   UNL     1      19.831   9.710  -0.156  0.00  0.00    -0.263 NA
ATOM     40  C   UNL     1      18.913  10.753  -0.354  0.00  0.00    +0.111 A 
ENDBRANCH   4   3
ENDBRANCH  10   9
BRANCH  12  13
ATOM     13  N   UNL     1      16.349   1.303   5.907  0.00  0.00    -0.281 N 
ATOM     14  C   UNL     1      15.375   0.378   5.567  0.00  0.00    +0.248 C 
ATOM     30  O   UNL     1      15.289  -0.167   4.476  0.00  0.00    -0.270 OA
ATOM     31  H   UNL     1      16.192   1.822   6.771  0.00  0.00    +0.155 HD
BRANCH  14  15
ATOM     15  C   UNL     1      14.337   0.017   6.580  0.00  0.00    +0.037 A 
ATOM     16  C   UNL     1      14.655  -0.846   7.720  0.00  0.00    +0.013 A 
ATOM     17  C   UNL     1      13.631  -1.192   8.674  0.00  0.00    +0.005 A 
ATOM     18  C   UNL     1      12.278  -0.674   8.491  0.00  0.00    -0.033 A 
ATOM     28  C   UNL     1      11.990   0.184   7.354  0.00  0.00    +0.005 A 
ATOM     29  C   UNL     1      12.991   0.525   6.417  0.00  0.00    +0.013 A 
BRANCH  18  19
ATOM     19  C   UNL     1      11.118  -1.009   9.447  0.00  0.00    +0.119 C 
BRANCH  19  20
ATOM     20  N   UNL     1      11.441  -1.827  10.654  0.00  0.00    -0.302 NA
ATOM     21  C   UNL     1      10.816  -3.223  10.586  0.00  0.00    +0.066 C 
ATOM     22  C   UNL     1      11.183  -4.073  11.846  0.00  0.00    -0.064 C 
ATOM     23  N   UNL     1      10.725  -3.336  13.105  0.00  0.00    +0.379 N 
ATOM     24  C   UNL     1      11.016  -4.159  14.289  0.00  0.00    -0.096 C 
ATOM     25  H   UNL     1       9.619  -3.214  13.042  0.00  0.00    -0.082 HD
ATOM     26  C   UNL     1      11.339  -1.945  13.180  0.00  0.00    -0.064 C 
ATOM     27  C   UNL     1      10.993  -1.120  11.909  0.00  0.00    +0.066 C 
ENDBRANCH  19  20
ENDBRANCH  18  19
ENDBRANCH  14  15
ENDBRANCH  12  13
TORSDOF 6
ENDMDL
MODEL 5
REMARK VINA RESULT:      -9.9      5.922     14.903
REMARK  Name = C:\Users\Docking\Desktop\test protocol\1iep_ligandH.pdb
REMARK  8 active torsions:
REMARK  status: ('A' for Active; 'I' for Inactive)
REMARK    1  A    between atoms: _5  and  _11
REMARK    2  A    between atoms: _19  and  _21
REMARK    3  A    between atoms: _22  and  _66
REMARK    4  A    between atoms: _27  and  _30
REMARK    5  A    between atoms: _32  and  _33
REMARK    6  A    between atoms: _38  and  _43
REMARK    7  A    between atoms: _43  and  _46
REMARK    8  A    between atoms: _53  and  _55
REMARK                            x       y       z     vdW  Elec       q    Type
REMARK                         _______ _______ _______ _____ _____    ______ ____
ROOT
ATOM     10  C   UNL     1      18.735   0.536   5.082  0.00  0.00    +0.038 A 
ATOM     11  C   UNL     1      18.842   1.900   4.711  0.00  0.00    +0.047 A 
ATOM     12  C   UNL     1      19.837   2.341   3.745  0.00  0.00    +0.035 A 
ATOM     32  C   UNL     1      20.704   1.365   3.175  0.00  0.00    +0.024 A 
ATOM     33  C   UNL     1      20.609  -0.027   3.541  0.00  0.00    +0.007 A 
ATOM     34  C   UNL     1      19.632  -0.467   4.495  0.00  0.00    -0.029 A 
ATOM     35  C   UNL     1      19.579  -1.970   4.855  0.00  0.00    +0.045 C 
ENDROOT
BRANCH  10   9
ATOM      4  C   UNL     1      14.162   0.040   6.455  0.00  0.00    +0.077 A 
ATOM      5  C   UNL     1      13.671   0.585   5.222  0.00  0.00    +0.048 A 
ATOM      6  C   UNL     1      14.628   0.988   4.264  0.00  0.00    +0.116 A 
ATOM      7  N   UNL     1      15.973   0.850   4.529  0.00  0.00    -0.223 NA
ATOM      8  C   UNL     1      16.413   0.322   5.729  0.00  0.00    +0.220 A 
ATOM      9  N   UNL     1      17.761   0.168   6.013  0.00  0.00    -0.283 N 
ATOM     36  H   UNL     1      18.046  -0.219   6.913  0.00  0.00    +0.155 HD
ATOM     37  N   UNL     1      15.519  -0.068   6.661  0.00  0.00    -0.214 NA
BRANCH   4   3
ATOM      1  C   UNL     1      11.045  -0.588   8.733  0.00  0.00    +0.020 A 
ATOM      2  C   UNL     1      11.858  -0.105   7.640  0.00  0.00    +0.013 A 
ATOM      3  C   UNL     1      13.275  -0.433   7.565  0.00  0.00    +0.019 A 
ATOM     38  C   UNL     1      13.845  -1.259   8.618  0.00  0.00    +0.120 A 
ATOM     39  N   UNL     1      13.038  -1.709   9.659  0.00  0.00    -0.263 NA
ATOM     40  C   UNL     1      11.673  -1.398   9.744  0.00  0.00    +0.111 A 
ENDBRANCH   4   3
ENDBRANCH  10   9
BRANCH  12  13
ATOM     13  N   UNL     1      19.999   3.715   3.336  0.00  0.00    -0.281 N 
ATOM     14  C   UNL     1      21.048   4.571   3.626  0.00  0.00    +0.248 C 
ATOM     30  O   UNL     1      21.909   4.351   4.464  0.00  0.00    -0.270 OA
ATOM     31  H   UNL     1      19.249   4.102   2.763  0.00  0.00    +0.155 HD
BRANCH  14  15
ATOM     15  C   UNL     1      21.146   5.868   2.888  0.00  0.00    +0.037 A 
ATOM     16  C   UNL     1      21.482   5.907   1.463  0.00  0.00    +0.013 A 
ATOM     17  C   UNL     1      21.588   7.172   0.779  0.00  0.00    +0.005 A 
ATOM     18  C   UNL     1      21.354   8.408   1.521  0.00  0.00    -0.033 A 
ATOM     28  C   UNL     1      21.017   8.340   2.933  0.00  0.00    +0.005 A 
ATOM     29  C   UNL     1      20.914   7.102   3.607  0.00  0.00    +0.013 A 
BRANCH  18  19
ATOM     19  C   UNL     1      21.466   9.803   0.878  0.00  0.00    +0.119 C 
BRANCH  19  20
ATOM     20  N   UNL     1      20.286  10.297   0.107  0.00  0.00    -0.302 NA
ATOM     21  C   UNL     1      20.696  11.227  -1.039  0.00  0.00    +0.066 C 
ATOM     22  C   UNL     1      19.451  11.716  -1.848  0.00  0.00    -0.064 C 
ATOM     23  N   UNL     1      18.476  12.420  -0.903  0.00  0.00    +0.379 N 
ATOM     24  C   UNL     1      17.331  12.932  -1.670  0.00  0.00    -0.096 C 
ATOM     25  H   UNL     1      19.006  13.295  -0.461  0.00  0.00    -0.082 HD
ATOM     26  C   UNL     1      18.065  11.503   0.241  0.00  0.00    -0.064 C 
ATOM     27  C   UNL     1      19.311  10.999   1.021  0.00  0.00    +0.066 C 
ENDBRANCH  19  20
ENDBRANCH  18  19
ENDBRANCH  14  15
ENDBRANCH  12  13
TORSDOF 6
ENDMDL
