MODEL 1
REMARK VINA RESULT:      -8.1      0.000      0.000
REMARK  Name = C:\Users\Docking\Desktop\test protocol\1iep_ligandH.pdb
REMARK  8 active torsions:
REMARK  status: ('A' for Active; 'I' for Inactive)
REMARK    1  A    between atoms: _5  and  _11
REMARK    2  A    between atoms: _19  and  _21
REMARK    3  A    between atoms: _22  and  _66
REMARK    4  A    between atoms: _27  and  _30
REMARK    5  A    between atoms: _32  and  _33
REMARK    6  A    between atoms: _38  and  _43
REMARK    7  A    between atoms: _43  and  _46
REMARK    8  A    between atoms: _53  and  _55
REMARK                            x       y       z     vdW  Elec       q    Type
REMARK                         _______ _______ _______ _____ _____    ______ ____
ROOT
ATOM     10  C   UNL     1      45.511  -5.321  26.703  0.00  0.00    +0.038 A 
ATOM     11  C   UNL     1      44.761  -4.298  26.067  0.00  0.00    +0.047 A 
ATOM     12  C   UNL     1      43.772  -3.524  26.800  0.00  0.00    +0.035 A 
ATOM     32  C   UNL     1      43.573  -3.817  28.181  0.00  0.00    +0.024 A 
ATOM     33  C   UNL     1      44.325  -4.853  28.842  0.00  0.00    +0.007 A 
ATOM     34  C   UNL     1      45.301  -5.622  28.124  0.00  0.00    -0.029 A 
ATOM     35  C   UNL     1      46.074  -6.726  28.883  0.00  0.00    +0.045 C 
ENDROOT
BRANCH  10   9
ATOM      4  C   UNL     1      49.944  -5.970  24.982  0.00  0.00    +0.077 A 
ATOM      5  C   UNL     1      50.428  -4.775  25.613  0.00  0.00    +0.048 A 
ATOM      6  C   UNL     1      49.501  -4.018  26.365  0.00  0.00    +0.116 A 
ATOM      7  N   UNL     1      48.192  -4.435  26.472  0.00  0.00    -0.223 NA
ATOM      8  C   UNL     1      47.758  -5.591  25.850  0.00  0.00    +0.220 A 
ATOM      9  N   UNL     1      46.448  -6.033  25.951  0.00  0.00    -0.283 N 
ATOM     36  H   UNL     1      46.166  -6.887  25.471  0.00  0.00    +0.155 HD
ATOM     37  N   UNL     1      48.623  -6.331  25.125  0.00  0.00    -0.214 NA
BRANCH   4   3
ATOM      1  C   UNL     1      52.725  -7.319  22.585  0.00  0.00    +0.020 A 
ATOM      2  C   UNL     1      51.928  -6.400  23.364  0.00  0.00    +0.013 A 
ATOM      3  C   UNL     1      50.802  -6.878  24.157  0.00  0.00    +0.019 A 
ATOM     38  C   UNL     1      50.508  -8.303  24.140  0.00  0.00    +0.120 A 
ATOM     39  N   UNL     1      51.293  -9.164  23.379  0.00  0.00    -0.263 NA
ATOM     40  C   UNL     1      52.377  -8.715  22.610  0.00  0.00    +0.111 A 
ENDBRANCH   4   3
ENDBRANCH  10   9
BRANCH  12  13
ATOM     13  N   UNL     1      42.975  -2.479  26.206  0.00  0.00    -0.281 N 
ATOM     14  C   UNL     1      43.240  -1.120  26.174  0.00  0.00    +0.248 C 
ATOM     30  O   UNL     1      44.101  -0.568  26.843  0.00  0.00    -0.270 OA
ATOM     31  H   UNL     1      42.111  -2.778  25.753  0.00  0.00    +0.155 HD
BRANCH  14  15
ATOM     15  C   UNL     1      42.419  -0.245  25.283  0.00  0.00    +0.037 A 
ATOM     16  C   UNL     1      42.518   1.215  25.351  0.00  0.00    +0.013 A 
ATOM     17  C   UNL     1      41.703   2.036  24.491  0.00  0.00    +0.005 A 
ATOM     18  C   UNL     1      40.782   1.398  23.554  0.00  0.00    -0.033 A 
ATOM     28  C   UNL     1      40.708  -0.053  23.503  0.00  0.00    +0.005 A 
ATOM     29  C   UNL     1      41.505  -0.861  24.345  0.00  0.00    +0.013 A 
BRANCH  18  19
ATOM     19  C   UNL     1      39.859   2.195  22.613  0.00  0.00    +0.119 C 
BRANCH  19  20
ATOM     20  N   UNL     1      39.248   3.446  23.154  0.00  0.00    -0.302 NA
ATOM     21  C   UNL     1      38.163   3.153  24.194  0.00  0.00    +0.066 C 
ATOM     22  C   UNL     1      37.551   4.472  24.766  0.00  0.00    -0.064 C 
ATOM     23  N   UNL     1      36.987   5.310  23.616  0.00  0.00    +0.379 N 
ATOM     24  C   UNL     1      36.359   6.524  24.156  0.00  0.00    -0.096 C 
ATOM     25  H   UNL     1      36.190   4.709  23.119  0.00  0.00    -0.082 HD
ATOM     26  C   UNL     1      38.059   5.604  22.577  0.00  0.00    -0.064 C 
ATOM     27  C   UNL     1      38.682   4.286  22.036  0.00  0.00    +0.066 C 
ENDBRANCH  19  20
ENDBRANCH  18  19
ENDBRANCH  14  15
ENDBRANCH  12  13
TORSDOF 6
ENDMDL
MODEL 2
REMARK VINA RESULT:      -8.0     22.892     26.653
REMARK  Name = C:\Users\Docking\Desktop\test protocol\1iep_ligandH.pdb
REMARK  8 active torsions:
REMARK  status: ('A' for Active; 'I' for Inactive)
REMARK    1  A    between atoms: _5  and  _11
REMARK    2  A    between atoms: _19  and  _21
REMARK    3  A    between atoms: _22  and  _66
REMARK    4  A    between atoms: _27  and  _30
REMARK    5  A    between atoms: _32  and  _33
REMARK    6  A    between atoms: _38  and  _43
REMARK    7  A    between atoms: _43  and  _46
REMARK    8  A    between atoms: _53  and  _55
REMARK                            x       y       z     vdW  Elec       q    Type
REMARK                         _______ _______ _______ _____ _____    ______ ____
ROOT
ATOM     10  C   UNL     1      45.636   1.265   0.275  0.00  0.00    +0.038 A 
ATOM     11  C   UNL     1      46.977   1.093   0.702  0.00  0.00    +0.047 A 
ATOM     12  C   UNL     1      47.883   2.226   0.811  0.00  0.00    +0.035 A 
ATOM     32  C   UNL     1      47.389   3.521   0.478  0.00  0.00    +0.024 A 
ATOM     33  C   UNL     1      46.029   3.714   0.041  0.00  0.00    +0.007 A 
ATOM     34  C   UNL     1      45.131   2.600  -0.070  0.00  0.00    -0.029 A 
ATOM     35  C   UNL     1      43.685   2.865  -0.551  0.00  0.00    +0.045 C 
ENDROOT
BRANCH  10   9
ATOM      4  C   UNL     1      42.349  -1.720   2.097  0.00  0.00    +0.077 A 
ATOM      5  C   UNL     1      42.294  -0.998   3.336  0.00  0.00    +0.048 A 
ATOM      6  C   UNL     1      43.132   0.132   3.466  0.00  0.00    +0.116 A 
ATOM      7  N   UNL     1      43.960   0.503   2.429  0.00  0.00    -0.223 NA
ATOM      8  C   UNL     1      43.990  -0.217   1.248  0.00  0.00    +0.220 A 
ATOM      9  N   UNL     1      44.809   0.143   0.189  0.00  0.00    -0.283 N 
ATOM     36  H   UNL     1      44.807  -0.418  -0.663  0.00  0.00    +0.155 HD
ATOM     37  N   UNL     1      43.200  -1.300   1.099  0.00  0.00    -0.214 NA
BRANCH   4   3
ATOM      1  C   UNL     1      40.319  -5.039   2.502  0.00  0.00    +0.020 A 
ATOM      2  C   UNL     1      41.120  -3.884   2.836  0.00  0.00    +0.013 A 
ATOM      3  C   UNL     1      41.520  -2.933   1.807  0.00  0.00    +0.019 A 
ATOM     38  C   UNL     1      41.090  -3.181   0.439  0.00  0.00    +0.120 A 
ATOM     39  N   UNL     1      40.320  -4.303   0.147  0.00  0.00    -0.263 NA
ATOM     40  C   UNL     1      39.931  -5.226   1.129  0.00  0.00    +0.111 A 
ENDBRANCH   4   3
ENDBRANCH  10   9
BRANCH  12  13
ATOM     13  N   UNL     1      49.258   2.111   1.232  0.00  0.00    -0.281 N 
ATOM     14  C   UNL     1      49.788   1.257   2.185  0.00  0.00    +0.248 C 
ATOM     30  O   UNL     1      49.122   0.608   2.978  0.00  0.00    -0.270 OA
ATOM     31  H   UNL     1      49.920   2.734   0.770  0.00  0.00    +0.155 HD
BRANCH  14  15
ATOM     15  C   UNL     1      51.273   1.116   2.282  0.00  0.00    +0.037 A 
ATOM     16  C   UNL     1      51.902  -0.197   2.450  0.00  0.00    +0.013 A 
ATOM     17  C   UNL     1      53.335  -0.304   2.557  0.00  0.00    +0.005 A 
ATOM     18  C   UNL     1      54.150   0.907   2.496  0.00  0.00    -0.033 A 
ATOM     28  C   UNL     1      53.501   2.196   2.323  0.00  0.00    +0.005 A 
ATOM     29  C   UNL     1      52.096   2.305   2.219  0.00  0.00    +0.013 A 
BRANCH  18  19
ATOM     19  C   UNL     1      55.685   0.890   2.623  0.00  0.00    +0.119 C 
BRANCH  19  20
ATOM     20  N   UNL     1      56.423   2.107   2.170  0.00  0.00    -0.302 NA
ATOM     21  C   UNL     1      56.880   1.992   0.713  0.00  0.00    +0.066 C 
ATOM     22  C   UNL     1      57.631   3.283   0.249  0.00  0.00    -0.064 C 
ATOM     23  N   UNL     1      58.823   3.537   1.173  0.00  0.00    +0.379 N 
ATOM     24  C   UNL     1      59.564   4.717   0.704  0.00  0.00    -0.096 C 
ATOM     25  H   UNL     1      59.503   2.657   1.096  0.00  0.00    -0.082 HD
ATOM     26  C   UNL     1      58.377   3.650   2.624  0.00  0.00    -0.064 C 
ATOM     27  C   UNL     1      57.607   2.374   3.066  0.00  0.00    +0.066 C 
ENDBRANCH  19  20
ENDBRANCH  18  19
ENDBRANCH  14  15
ENDBRANCH  12  13
TORSDOF 6
ENDMDL
MODEL 3
REMARK VINA RESULT:      -8.0      9.093     12.991
REMARK  Name = C:\Users\Docking\Desktop\test protocol\1iep_ligandH.pdb
REMARK  8 active torsions:
REMARK  status: ('A' for Active; 'I' for Inactive)
REMARK    1  A    between atoms: _5  and  _11
REMARK    2  A    between atoms: _19  and  _21
REMARK    3  A    between atoms: _22  and  _66
REMARK    4  A    between atoms: _27  and  _30
REMARK    5  A    between atoms: _32  and  _33
REMARK    6  A    between atoms: _38  and  _43
REMARK    7  A    between atoms: _43  and  _46
REMARK    8  A    between atoms: _53  and  _55
REMARK                            x       y       z     vdW  Elec       q    Type
REMARK                         _______ _______ _______ _____ _____    ______ ____
ROOT
ATOM     10  C   UNL     1      37.021   5.157  24.358  0.00  0.00    +0.038 A 
ATOM     11  C   UNL     1      37.185   4.062  25.244  0.00  0.00    +0.047 A 
ATOM     12  C   UNL     1      36.833   4.173  26.651  0.00  0.00    +0.035 A 
ATOM     32  C   UNL     1      36.314   5.414  27.122  0.00  0.00    +0.024 A 
ATOM     33  C   UNL     1      36.142   6.538  26.236  0.00  0.00    +0.007 A 
ATOM     34  C   UNL     1      36.489   6.435  24.847  0.00  0.00    -0.029 A 
ATOM     35  C   UNL     1      36.290   7.675  23.944  0.00  0.00    +0.045 C 
ENDROOT
BRANCH  10   9
ATOM      4  C   UNL     1      39.343   2.860  20.841  0.00  0.00    +0.077 A 
ATOM      5  C   UNL     1      39.922   1.920  21.757  0.00  0.00    +0.048 A 
ATOM      6  C   UNL     1      39.602   2.066  23.126  0.00  0.00    +0.116 A 
ATOM      7  N   UNL     1      38.765   3.081  23.536  0.00  0.00    -0.223 NA
ATOM      8  C   UNL     1      38.225   3.972  22.627  0.00  0.00    +0.220 A 
ATOM      9  N   UNL     1      37.375   4.995  23.017  0.00  0.00    -0.283 N 
ATOM     36  H   UNL     1      37.003   5.636  22.317  0.00  0.00    +0.155 HD
ATOM     37  N   UNL     1      38.516   3.854  21.315  0.00  0.00    -0.214 NA
BRANCH   4   3
ATOM      1  C   UNL     1      41.013   2.368  17.339  0.00  0.00    +0.020 A 
ATOM      2  C   UNL     1      40.833   2.373  18.772  0.00  0.00    +0.013 A 
ATOM      3  C   UNL     1      39.583   2.835  19.364  0.00  0.00    +0.019 A 
ATOM     38  C   UNL     1      38.528   3.287  18.470  0.00  0.00    +0.120 A 
ATOM     39  N   UNL     1      38.730   3.272  17.094  0.00  0.00    -0.263 NA
ATOM     40  C   UNL     1      39.929   2.832  16.513  0.00  0.00    +0.111 A 
ENDBRANCH   4   3
ENDBRANCH  10   9
BRANCH  12  13
ATOM     13  N   UNL     1      36.985   3.097  27.600  0.00  0.00    -0.281 N 
ATOM     14  C   UNL     1      38.024   2.889  28.492  0.00  0.00    +0.248 C 
ATOM     30  O   UNL     1      39.091   3.485  28.462  0.00  0.00    -0.270 OA
ATOM     31  H   UNL     1      36.236   2.405  27.615  0.00  0.00    +0.155 HD
BRANCH  14  15
ATOM     15  C   UNL     1      37.860   1.862  29.565  0.00  0.00    +0.037 A 
ATOM     16  C   UNL     1      36.760   0.894  29.528  0.00  0.00    +0.013 A 
ATOM     17  C   UNL     1      36.614  -0.076  30.585  0.00  0.00    +0.005 A 
ATOM     18  C   UNL     1      37.574  -0.083  31.687  0.00  0.00    -0.033 A 
ATOM     28  C   UNL     1      38.658   0.884  31.695  0.00  0.00    +0.005 A 
ATOM     29  C   UNL     1      38.803   1.837  30.662  0.00  0.00    +0.013 A 
BRANCH  18  19
ATOM     19  C   UNL     1      37.483  -1.069  32.867  0.00  0.00    +0.119 C 
BRANCH  19  20
ATOM     20  N   UNL     1      37.750  -2.509  32.577  0.00  0.00    -0.302 NA
ATOM     21  C   UNL     1      36.732  -3.430  33.256  0.00  0.00    +0.066 C 
ATOM     22  C   UNL     1      37.012  -4.932  32.924  0.00  0.00    -0.064 C 
ATOM     23  N   UNL     1      38.436  -5.289  33.353  0.00  0.00    +0.379 N 
ATOM     24  C   UNL     1      38.683  -6.715  33.096  0.00  0.00    -0.096 C 
ATOM     25  H   UNL     1      38.507  -5.127  34.454  0.00  0.00    -0.082 HD
ATOM     26  C   UNL     1      39.454  -4.377  32.685  0.00  0.00    -0.064 C 
ATOM     27  C   UNL     1      39.149  -2.885  32.998  0.00  0.00    +0.066 C 
ENDBRANCH  19  20
ENDBRANCH  18  19
ENDBRANCH  14  15
ENDBRANCH  12  13
TORSDOF 6
ENDMDL
MODEL 4
REMARK VINA RESULT:      -7.9      1.750      2.270
REMARK  Name = C:\Users\Docking\Desktop\test protocol\1iep_ligandH.pdb
REMARK  8 active torsions:
REMARK  status: ('A' for Active; 'I' for Inactive)
REMARK    1  A    between atoms: _5  and  _11
REMARK    2  A    between atoms: _19  and  _21
REMARK    3  A    between atoms: _22  and  _66
REMARK    4  A    between atoms: _27  and  _30
REMARK    5  A    between atoms: _32  and  _33
REMARK    6  A    between atoms: _38  and  _43
REMARK    7  A    between atoms: _43  and  _46
REMARK    8  A    between atoms: _53  and  _55
REMARK                            x       y       z     vdW  Elec       q    Type
REMARK                         _______ _______ _______ _____ _____    ______ ____
ROOT
ATOM     10  C   UNL     1      47.572  -3.453  27.278  0.00  0.00    +0.038 A 
ATOM     11  C   UNL     1      46.511  -2.801  26.599  0.00  0.00    +0.047 A 
ATOM     12  C   UNL     1      45.182  -2.720  27.184  0.00  0.00    +0.035 A 
ATOM     32  C   UNL     1      44.969  -3.311  28.464  0.00  0.00    +0.024 A 
ATOM     33  C   UNL     1      46.036  -3.978  29.167  0.00  0.00    +0.007 A 
ATOM     34  C   UNL     1      47.349  -4.063  28.594  0.00  0.00    -0.029 A 
ATOM     35  C   UNL     1      48.454  -4.796  29.390  0.00  0.00    +0.045 C 
ENDROOT
BRANCH  10   9
ATOM      4  C   UNL     1      50.932  -5.686  24.678  0.00  0.00    +0.077 A 
ATOM      5  C   UNL     1      50.127  -6.866  24.542  0.00  0.00    +0.048 A 
ATOM      6  C   UNL     1      48.858  -6.860  25.162  0.00  0.00    +0.116 A 
ATOM      7  N   UNL     1      48.435  -5.751  25.863  0.00  0.00    -0.223 NA
ATOM      8  C   UNL     1      49.237  -4.631  25.976  0.00  0.00    +0.220 A 
ATOM      9  N   UNL     1      48.829  -3.502  26.670  0.00  0.00    -0.283 N 
ATOM     36  H   UNL     1      49.453  -2.698  26.737  0.00  0.00    +0.155 HD
ATOM     37  N   UNL     1      50.454  -4.612  25.394  0.00  0.00    -0.214 NA
BRANCH   4   3
ATOM      1  C   UNL     1      53.974  -5.895  22.228  0.00  0.00    +0.020 A 
ATOM      2  C   UNL     1      52.643  -6.065  22.763  0.00  0.00    +0.013 A 
ATOM      3  C   UNL     1      52.295  -5.538  24.076  0.00  0.00    +0.019 A 
ATOM     38  C   UNL     1      53.325  -4.838  24.829  0.00  0.00    +0.120 A 
ATOM     39  N   UNL     1      54.599  -4.691  24.289  0.00  0.00    -0.263 NA
ATOM     40  C   UNL     1      54.946  -5.195  23.026  0.00  0.00    +0.111 A 
ENDBRANCH   4   3
ENDBRANCH  10   9
BRANCH  12  13
ATOM     13  N   UNL     1      44.063  -2.078  26.539  0.00  0.00    -0.281 N 
ATOM     14  C   UNL     1      43.577  -0.799  26.750  0.00  0.00    +0.248 C 
ATOM     30  O   UNL     1      43.901  -0.082  27.686  0.00  0.00    -0.270 OA
ATOM     31  H   UNL     1      43.570  -2.635  25.841  0.00  0.00    +0.155 HD
BRANCH  14  15
ATOM     15  C   UNL     1      42.575  -0.239  25.792  0.00  0.00    +0.037 A 
ATOM     16  C   UNL     1      42.318  -0.881  24.501  0.00  0.00    +0.013 A 
ATOM     17  C   UNL     1      41.359  -0.311  23.588  0.00  0.00    +0.005 A 
ATOM     18  C   UNL     1      40.649   0.909  23.965  0.00  0.00    -0.033 A 
ATOM     28  C   UNL     1      40.920   1.522  25.255  0.00  0.00    +0.005 A 
ATOM     29  C   UNL     1      41.860   0.967  26.152  0.00  0.00    +0.013 A 
BRANCH  18  19
ATOM     19  C   UNL     1      39.624   1.598  23.045  0.00  0.00    +0.119 C 
BRANCH  19  20
ATOM     20  N   UNL     1      39.312   3.032  23.323  0.00  0.00    -0.302 NA
ATOM     21  C   UNL     1      38.279   3.189  24.442  0.00  0.00    +0.066 C 
ATOM     22  C   UNL     1      37.982   4.696  24.735  0.00  0.00    -0.064 C 
ATOM     23  N   UNL     1      37.498   5.375  23.453  0.00  0.00    +0.379 N 
ATOM     24  C   UNL     1      37.162   6.778  23.738  0.00  0.00    -0.096 C 
ATOM     25  H   UNL     1      36.562   4.862  23.131  0.00  0.00    -0.082 HD
ATOM     26  C   UNL     1      38.518   5.222  22.333  0.00  0.00    -0.064 C 
ATOM     27  C   UNL     1      38.828   3.722  22.071  0.00  0.00    +0.066 C 
ENDBRANCH  19  20
ENDBRANCH  18  19
ENDBRANCH  14  15
ENDBRANCH  12  13
TORSDOF 6
ENDMDL
MODEL 5
REMARK VINA RESULT:      -7.9      3.200     12.794
REMARK  Name = C:\Users\Docking\Desktop\test protocol\1iep_ligandH.pdb
REMARK  8 active torsions:
REMARK  status: ('A' for Active; 'I' for Inactive)
REMARK    1  A    between atoms: _5  and  _11
REMARK    2  A    between atoms: _19  and  _21
REMARK    3  A    between atoms: _22  and  _66
REMARK    4  A    between atoms: _27  and  _30
REMARK    5  A    between atoms: _32  and  _33
REMARK    6  A    between atoms: _38  and  _43
REMARK    7  A    between atoms: _43  and  _46
REMARK    8  A    between atoms: _53  and  _55
REMARK                            x       y       z     vdW  Elec       q    Type
REMARK                         _______ _______ _______ _____ _____    ______ ____
ROOT
ATOM     10  C   UNL     1      45.281  -4.983  26.306  0.00  0.00    +0.038 A 
ATOM     11  C   UNL     1      46.519  -5.130  25.631  0.00  0.00    +0.047 A 
ATOM     12  C   UNL     1      47.557  -6.010  26.144  0.00  0.00    +0.035 A 
ATOM     32  C   UNL     1      47.298  -6.729  27.348  0.00  0.00    +0.024 A 
ATOM     33  C   UNL     1      46.045  -6.590  28.048  0.00  0.00    +0.007 A 
ATOM     34  C   UNL     1      45.019  -5.721  27.547  0.00  0.00    -0.029 A 
ATOM     35  C   UNL     1      43.698  -5.607  28.343  0.00  0.00    +0.045 C 
ENDROOT
BRANCH  10   9
ATOM      4  C   UNL     1      42.958  -0.785  26.169  0.00  0.00    +0.077 A 
ATOM      5  C   UNL     1      43.703  -0.269  27.282  0.00  0.00    +0.048 A 
ATOM      6  C   UNL     1      44.669  -1.119  27.865  0.00  0.00    +0.116 A 
ATOM      7  N   UNL     1      44.868  -2.387  27.365  0.00  0.00    -0.223 NA
ATOM      8  C   UNL     1      44.131  -2.854  26.292  0.00  0.00    +0.220 A 
ATOM      9  N   UNL     1      44.320  -4.124  25.768  0.00  0.00    -0.283 N 
ATOM     36  H   UNL     1      43.751  -4.434  24.980  0.00  0.00    +0.155 HD
ATOM     37  N   UNL     1      43.201  -2.063  25.718  0.00  0.00    -0.214 NA
BRANCH   4   3
ATOM      1  C   UNL     1      40.463   0.465  23.428  0.00  0.00    +0.020 A 
ATOM      2  C   UNL     1      41.485  -0.318  24.083  0.00  0.00    +0.013 A 
ATOM      3  C   UNL     1      41.904  -0.007  25.444  0.00  0.00    +0.019 A 
ATOM     38  C   UNL     1      41.262   1.110  26.120  0.00  0.00    +0.120 A 
ATOM     39  N   UNL     1      40.281   1.847  25.464  0.00  0.00    -0.263 NA
ATOM     40  C   UNL     1      39.871   1.558  24.153  0.00  0.00    +0.111 A 
ENDBRANCH   4   3
ENDBRANCH  10   9
BRANCH  12  13
ATOM     13  N   UNL     1      48.837  -6.194  25.506  0.00  0.00    -0.281 N 
ATOM     14  C   UNL     1      49.343  -7.346  24.928  0.00  0.00    +0.248 C 
ATOM     30  O   UNL     1      48.854  -8.458  25.060  0.00  0.00    -0.270 OA
ATOM     31  H   UNL     1      49.444  -5.374  25.478  0.00  0.00    +0.155 HD
BRANCH  14  15
ATOM     15  C   UNL     1      50.578  -7.252  24.092  0.00  0.00    +0.037 A 
ATOM     16  C   UNL     1      51.266  -8.454  23.614  0.00  0.00    +0.013 A 
ATOM     17  C   UNL     1      52.465  -8.335  22.824  0.00  0.00    +0.005 A 
ATOM     18  C   UNL     1      52.985  -7.008  22.505  0.00  0.00    -0.033 A 
ATOM     28  C   UNL     1      52.280  -5.832  22.988  0.00  0.00    +0.005 A 
ATOM     29  C   UNL     1      51.104  -5.944  23.764  0.00  0.00    +0.013 A 
BRANCH  18  19
ATOM     19  C   UNL     1      54.270  -6.786  21.686  0.00  0.00    +0.119 C 
BRANCH  19  20
ATOM     20  N   UNL     1      54.999  -5.499  21.892  0.00  0.00    -0.302 NA
ATOM     21  C   UNL     1      55.036  -4.651  20.617  0.00  0.00    +0.066 C 
ATOM     22  C   UNL     1      55.783  -3.298  20.856  0.00  0.00    -0.064 C 
ATOM     23  N   UNL     1      57.199  -3.582  21.360  0.00  0.00    +0.379 N 
ATOM     24  C   UNL     1      57.923  -2.314  21.530  0.00  0.00    -0.096 C 
ATOM     25  H   UNL     1      57.726  -4.170  20.572  0.00  0.00    -0.082 HD
ATOM     26  C   UNL     1      57.171  -4.428  22.625  0.00  0.00    -0.064 C 
ATOM     27  C   UNL     1      56.401  -5.757  22.385  0.00  0.00    +0.066 C 
ENDBRANCH  19  20
ENDBRANCH  18  19
ENDBRANCH  14  15
ENDBRANCH  12  13
TORSDOF 6
ENDMDL
