MODEL 1
REMARK VINA RESULT:     -14.9      0.000      0.000
REMARK  Name = C:\Users\Docking\Desktop\test protocol\1iep_ligandH.pdb
REMARK  8 active torsions:
REMARK  status: ('A' for Active; 'I' for Inactive)
REMARK    1  A    between atoms: _5  and  _11
REMARK    2  A    between atoms: _19  and  _21
REMARK    3  A    between atoms: _22  and  _66
REMARK    4  A    between atoms: _27  and  _30
REMARK    5  A    between atoms: _32  and  _33
REMARK    6  A    between atoms: _38  and  _43
REMARK    7  A    between atoms: _43  and  _46
REMARK    8  A    between atoms: _53  and  _55
REMARK                            x       y       z     vdW  Elec       q    Type
REMARK                         _______ _______ _______ _____ _____    ______ ____
ROOT
ATOM     10  C   UNL     1      15.254  21.995  14.803  0.00  0.00    +0.038 A 
ATOM     11  C   UNL     1      16.272  22.973  14.937  0.00  0.00    +0.047 A 
ATOM     12  C   UNL     1      17.637  22.701  14.513  0.00  0.00    +0.035 A 
ATOM     32  C   UNL     1      17.928  21.424  13.952  0.00  0.00    +0.024 A 
ATOM     33  C   UNL     1      16.906  20.417  13.809  0.00  0.00    +0.007 A 
ATOM     34  C   UNL     1      15.558  20.679  14.228  0.00  0.00    -0.029 A 
ATOM     35  C   UNL     1      14.504  19.560  14.057  0.00  0.00    +0.045 C 
ENDROOT
BRANCH  10   9
ATOM      4  C   UNL     1      12.157  23.649  18.076  0.00  0.00    +0.077 A 
ATOM      5  C   UNL     1      13.201  23.882  19.032  0.00  0.00    +0.048 A 
ATOM      6  C   UNL     1      14.520  23.556  18.644  0.00  0.00    +0.116 A 
ATOM      7  N   UNL     1      14.766  23.037  17.392  0.00  0.00    -0.223 NA
ATOM      8  C   UNL     1      13.736  22.823  16.494  0.00  0.00    +0.220 A 
ATOM      9  N   UNL     1      13.960  22.309  15.227  0.00  0.00    -0.283 N 
ATOM     36  H   UNL     1      13.173  22.159  14.597  0.00  0.00    +0.155 HD
ATOM     37  N   UNL     1      12.467  23.124  16.841  0.00  0.00    -0.214 NA
BRANCH   4   3
ATOM      1  C   UNL     1       8.253  23.417  18.149  0.00  0.00    +0.020 A 
ATOM      2  C   UNL     1       9.632  23.086  17.870  0.00  0.00    +0.013 A 
ATOM      3  C   UNL     1      10.713  23.945  18.335  0.00  0.00    +0.019 A 
ATOM     38  C   UNL     1      10.363  25.142  19.086  0.00  0.00    +0.120 A 
ATOM     39  N   UNL     1       9.026  25.436  19.337  0.00  0.00    -0.263 NA
ATOM     40  C   UNL     1       7.977  24.618  18.893  0.00  0.00    +0.111 A 
ENDBRANCH   4   3
ENDBRANCH  10   9
BRANCH  12  13
ATOM     13  N   UNL     1      18.714  23.652  14.632  0.00  0.00    -0.281 N 
ATOM     14  C   UNL     1      19.095  24.626  13.724  0.00  0.00    +0.248 C 
ATOM     30  O   UNL     1      18.698  24.687  12.569  0.00  0.00    -0.270 OA
ATOM     31  H   UNL     1      19.262  23.601  15.491  0.00  0.00    +0.155 HD
BRANCH  14  15
ATOM     15  C   UNL     1      20.068  25.675  14.155  0.00  0.00    +0.037 A 
ATOM     16  C   UNL     1      19.796  27.098  13.940  0.00  0.00    +0.013 A 
ATOM     17  C   UNL     1      20.760  28.089  14.351  0.00  0.00    +0.005 A 
ATOM     18  C   UNL     1      22.005  27.658  14.982  0.00  0.00    -0.033 A 
ATOM     28  C   UNL     1      22.246  26.240  15.188  0.00  0.00    +0.005 A 
ATOM     29  C   UNL     1      21.305  25.266  14.786  0.00  0.00    +0.013 A 
BRANCH  18  19
ATOM     19  C   UNL     1      23.098  28.645  15.433  0.00  0.00    +0.119 C 
BRANCH  19  20
ATOM     20  N   UNL     1      24.470  28.094  15.647  0.00  0.00    -0.302 NA
ATOM     21  C   UNL     1      24.800  27.936  17.134  0.00  0.00    +0.066 C 
ATOM     22  C   UNL     1      26.230  27.337  17.339  0.00  0.00    -0.064 C 
ATOM     23  N   UNL     1      27.259  28.233  16.648  0.00  0.00    +0.379 N 
ATOM     24  C   UNL     1      28.610  27.705  16.888  0.00  0.00    -0.096 C 
ATOM     25  H   UNL     1      27.201  29.241  17.121  0.00  0.00    -0.082 HD
ATOM     26  C   UNL     1      26.936  28.398  15.169  0.00  0.00    -0.064 C 
ATOM     27  C   UNL     1      25.503  28.966  14.976  0.00  0.00    +0.066 C 
ENDBRANCH  19  20
ENDBRANCH  18  19
ENDBRANCH  14  15
ENDBRANCH  12  13
TORSDOF 6
ENDMDL
MODEL 2
REMARK VINA RESULT:     -14.2      2.090     11.847
REMARK  Name = C:\Users\Docking\Desktop\test protocol\1iep_ligandH.pdb
REMARK  8 active torsions:
REMARK  status: ('A' for Active; 'I' for Inactive)
REMARK    1  A    between atoms: _5  and  _11
REMARK    2  A    between atoms: _19  and  _21
REMARK    3  A    between atoms: _22  and  _66
REMARK    4  A    between atoms: _27  and  _30
REMARK    5  A    between atoms: _32  and  _33
REMARK    6  A    between atoms: _38  and  _43
REMARK    7  A    between atoms: _43  and  _46
REMARK    8  A    between atoms: _53  and  _55
REMARK                            x       y       z     vdW  Elec       q    Type
REMARK                         _______ _______ _______ _____ _____    ______ ____
ROOT
ATOM     10  C   UNL     1      19.024  23.336  14.433  0.00  0.00    +0.038 A 
ATOM     11  C   UNL     1      17.872  23.414  15.256  0.00  0.00    +0.047 A 
ATOM     12  C   UNL     1      16.615  22.804  14.852  0.00  0.00    +0.035 A 
ATOM     32  C   UNL     1      16.568  22.119  13.603  0.00  0.00    +0.024 A 
ATOM     33  C   UNL     1      17.729  22.030  12.753  0.00  0.00    +0.007 A 
ATOM     34  C   UNL     1      18.971  22.633  13.146  0.00  0.00    -0.029 A 
ATOM     35  C   UNL     1      20.182  22.512  12.192  0.00  0.00    +0.045 C 
ENDROOT
BRANCH  10   9
ATOM      4  C   UNL     1      21.869  27.163  14.982  0.00  0.00    +0.077 A 
ATOM      5  C   UNL     1      20.935  28.026  14.318  0.00  0.00    +0.048 A 
ATOM      6  C   UNL     1      19.738  27.444  13.843  0.00  0.00    +0.116 A 
ATOM      7  N   UNL     1      19.503  26.099  14.025  0.00  0.00    -0.223 NA
ATOM      8  C   UNL     1      20.424  25.294  14.669  0.00  0.00    +0.220 A 
ATOM      9  N   UNL     1      20.205  23.940  14.870  0.00  0.00    -0.283 N 
ATOM     36  H   UNL     1      20.913  23.380  15.344  0.00  0.00    +0.155 HD
ATOM     37  N   UNL     1      21.576  25.825  15.130  0.00  0.00    -0.214 NA
BRANCH   4   3
ATOM      1  C   UNL     1      24.807  29.436  16.206  0.00  0.00    +0.020 A 
ATOM      2  C   UNL     1      23.531  29.038  15.657  0.00  0.00    +0.013 A 
ATOM      3  C   UNL     1      23.176  27.629  15.543  0.00  0.00    +0.019 A 
ATOM     38  C   UNL     1      24.142  26.640  15.997  0.00  0.00    +0.120 A 
ATOM     39  N   UNL     1      25.363  27.052  16.520  0.00  0.00    -0.263 NA
ATOM     40  C   UNL     1      25.717  28.405  16.633  0.00  0.00    +0.111 A 
ENDBRANCH   4   3
ENDBRANCH  10   9
BRANCH  12  13
ATOM     13  N   UNL     1      15.410  22.858  15.643  0.00  0.00    -0.281 N 
ATOM     14  C   UNL     1      15.277  22.658  17.007  0.00  0.00    +0.248 C 
ATOM     30  O   UNL     1      16.148  22.190  17.725  0.00  0.00    -0.270 OA
ATOM     31  H   UNL     1      14.551  23.068  15.135  0.00  0.00    +0.155 HD
BRANCH  14  15
ATOM     15  C   UNL     1      13.985  23.017  17.667  0.00  0.00    +0.037 A 
ATOM     16  C   UNL     1      13.953  23.580  19.019  0.00  0.00    +0.013 A 
ATOM     17  C   UNL     1      12.692  23.901  19.639  0.00  0.00    +0.005 A 
ATOM     18  C   UNL     1      11.452  23.662  18.905  0.00  0.00    -0.033 A 
ATOM     28  C   UNL     1      11.513  23.108  17.562  0.00  0.00    +0.005 A 
ATOM     29  C   UNL     1      12.747  22.791  16.952  0.00  0.00    +0.013 A 
BRANCH  18  19
ATOM     19  C   UNL     1      10.060  23.956  19.496  0.00  0.00    +0.119 C 
BRANCH  19  20
ATOM     20  N   UNL     1       9.869  25.273  20.173  0.00  0.00    -0.302 NA
ATOM     21  C   UNL     1       8.390  25.657  20.275  0.00  0.00    +0.066 C 
ATOM     22  C   UNL     1       8.207  27.027  21.006  0.00  0.00    -0.064 C 
ATOM     23  N   UNL     1       8.996  28.107  20.264  0.00  0.00    +0.379 N 
ATOM     24  C   UNL     1       8.779  29.407  20.914  0.00  0.00    -0.096 C 
ATOM     25  H   UNL     1       8.587  28.174  19.229  0.00  0.00    -0.082 HD
ATOM     26  C   UNL     1      10.467  27.732  20.155  0.00  0.00    -0.064 C 
ATOM     27  C   UNL     1      10.637  26.355  19.454  0.00  0.00    +0.066 C 
ENDBRANCH  19  20
ENDBRANCH  18  19
ENDBRANCH  14  15
ENDBRANCH  12  13
TORSDOF 6
ENDMDL
MODEL 3
REMARK VINA RESULT:     -13.8      2.034     12.613
REMARK  Name = C:\Users\Docking\Desktop\test protocol\1iep_ligandH.pdb
REMARK  8 active torsions:
REMARK  status: ('A' for Active; 'I' for Inactive)
REMARK    1  A    between atoms: _5  and  _11
REMARK    2  A    between atoms: _19  and  _21
REMARK    3  A    between atoms: _22  and  _66
REMARK    4  A    between atoms: _27  and  _30
REMARK    5  A    between atoms: _32  and  _33
REMARK    6  A    between atoms: _38  and  _43
REMARK    7  A    between atoms: _43  and  _46
REMARK    8  A    between atoms: _53  and  _55
REMARK                            x       y       z     vdW  Elec       q    Type
REMARK                         _______ _______ _______ _____ _____    ______ ____
ROOT
ATOM     10  C   UNL     1      19.136  23.618  14.738  0.00  0.00    +0.038 A 
ATOM     11  C   UNL     1      18.007  23.858  15.562  0.00  0.00    +0.047 A 
ATOM     12  C   UNL     1      16.703  23.302  15.233  0.00  0.00    +0.035 A 
ATOM     32  C   UNL     1      16.586  22.505  14.057  0.00  0.00    +0.024 A 
ATOM     33  C   UNL     1      17.724  22.252  13.207  0.00  0.00    +0.007 A 
ATOM     34  C   UNL     1      19.011  22.800  13.526  0.00  0.00    -0.029 A 
ATOM     35  C   UNL     1      20.194  22.502  12.576  0.00  0.00    +0.045 C 
ENDROOT
BRANCH  10   9
ATOM      4  C   UNL     1      22.169  27.323  15.071  0.00  0.00    +0.077 A 
ATOM      5  C   UNL     1      21.240  28.217  14.441  0.00  0.00    +0.048 A 
ATOM      6  C   UNL     1      19.995  27.682  14.040  0.00  0.00    +0.116 A 
ATOM      7  N   UNL     1      19.711  26.351  14.258  0.00  0.00    -0.223 NA
ATOM      8  C   UNL     1      20.631  25.516  14.866  0.00  0.00    +0.220 A 
ATOM      9  N   UNL     1      20.363  24.176  15.102  0.00  0.00    -0.283 N 
ATOM     36  H   UNL     1      21.071  23.592  15.547  0.00  0.00    +0.155 HD
ATOM     37  N   UNL     1      21.827  26.002  15.257  0.00  0.00    -0.214 NA
BRANCH   4   3
ATOM      1  C   UNL     1      25.875  27.241  16.320  0.00  0.00    +0.020 A 
ATOM      2  C   UNL     1      24.584  26.786  15.857  0.00  0.00    +0.013 A 
ATOM      3  C   UNL     1      23.524  27.739  15.553  0.00  0.00    +0.019 A 
ATOM     38  C   UNL     1      23.806  29.156  15.727  0.00  0.00    +0.120 A 
ATOM     39  N   UNL     1      25.058  29.565  16.176  0.00  0.00    -0.263 NA
ATOM     40  C   UNL     1      26.085  28.657  16.473  0.00  0.00    +0.111 A 
ENDBRANCH   4   3
ENDBRANCH  10   9
BRANCH  12  13
ATOM     13  N   UNL     1      15.519  23.518  16.027  0.00  0.00    -0.281 N 
ATOM     14  C   UNL     1      15.138  22.857  17.184  0.00  0.00    +0.248 C 
ATOM     30  O   UNL     1      15.654  21.829  17.595  0.00  0.00    -0.270 OA
ATOM     31  H   UNL     1      14.885  24.245  15.697  0.00  0.00    +0.155 HD
BRANCH  14  15
ATOM     15  C   UNL     1      14.010  23.411  17.993  0.00  0.00    +0.037 A 
ATOM     16  C   UNL     1      14.212  23.856  19.374  0.00  0.00    +0.013 A 
ATOM     17  C   UNL     1      13.103  24.370  20.138  0.00  0.00    +0.005 A 
ATOM     18  C   UNL     1      11.782  24.445  19.521  0.00  0.00    -0.033 A 
ATOM     28  C   UNL     1      11.610  24.002  18.147  0.00  0.00    +0.005 A 
ATOM     29  C   UNL     1      12.694  23.496  17.395  0.00  0.00    +0.013 A 
BRANCH  18  19
ATOM     19  C   UNL     1      10.537  24.960  20.268  0.00  0.00    +0.119 C 
BRANCH  19  20
ATOM     20  N   UNL     1       9.292  24.141  20.169  0.00  0.00    -0.302 NA
ATOM     21  C   UNL     1       8.343  24.667  19.089  0.00  0.00    +0.066 C 
ATOM     22  C   UNL     1       7.056  23.785  18.984  0.00  0.00    -0.064 C 
ATOM     23  N   UNL     1       6.358  23.743  20.344  0.00  0.00    +0.379 N 
ATOM     24  C   UNL     1       5.117  22.963  20.234  0.00  0.00    -0.096 C 
ATOM     25  H   UNL     1       6.078  24.788  20.613  0.00  0.00    -0.082 HD
ATOM     26  C   UNL     1       7.296  23.224  21.425  0.00  0.00    -0.064 C 
ATOM     27  C   UNL     1       8.584  24.090  21.501  0.00  0.00    +0.066 C 
ENDBRANCH  19  20
ENDBRANCH  18  19
ENDBRANCH  14  15
ENDBRANCH  12  13
TORSDOF 6
ENDMDL
MODEL 4
REMARK VINA RESULT:     -13.8      2.748     12.693
REMARK  Name = C:\Users\Docking\Desktop\test protocol\1iep_ligandH.pdb
REMARK  8 active torsions:
REMARK  status: ('A' for Active; 'I' for Inactive)
REMARK    1  A    between atoms: _5  and  _11
REMARK    2  A    between atoms: _19  and  _21
REMARK    3  A    between atoms: _22  and  _66
REMARK    4  A    between atoms: _27  and  _30
REMARK    5  A    between atoms: _32  and  _33
REMARK    6  A    between atoms: _38  and  _43
REMARK    7  A    between atoms: _43  and  _46
REMARK    8  A    between atoms: _53  and  _55
REMARK                            x       y       z     vdW  Elec       q    Type
REMARK                         _______ _______ _______ _____ _____    ______ ____
ROOT
ATOM     10  C   UNL     1      16.559  21.871  14.166  0.00  0.00    +0.038 A 
ATOM     11  C   UNL     1      15.327  22.186  14.794  0.00  0.00    +0.047 A 
ATOM     12  C   UNL     1      14.303  21.173  14.993  0.00  0.00    +0.035 A 
ATOM     32  C   UNL     1      14.568  19.847  14.542  0.00  0.00    +0.024 A 
ATOM     33  C   UNL     1      15.814  19.509  13.900  0.00  0.00    +0.007 A 
ATOM     34  C   UNL     1      16.827  20.506  13.699  0.00  0.00    -0.029 A 
ATOM     35  C   UNL     1      18.141  20.089  12.999  0.00  0.00    +0.045 C 
ENDROOT
BRANCH  10   9
ATOM      4  C   UNL     1      19.149  25.556  15.823  0.00  0.00    +0.077 A 
ATOM      5  C   UNL     1      18.543  25.475  17.121  0.00  0.00    +0.048 A 
ATOM      6  C   UNL     1      17.564  24.476  17.319  0.00  0.00    +0.116 A 
ATOM      7  N   UNL     1      17.225  23.626  16.288  0.00  0.00    -0.223 NA
ATOM      8  C   UNL     1      17.827  23.732  15.048  0.00  0.00    +0.220 A 
ATOM      9  N   UNL     1      17.507  22.884  14.000  0.00  0.00    -0.283 N 
ATOM     36  H   UNL     1      17.968  23.000  13.098  0.00  0.00    +0.155 HD
ATOM     37  N   UNL     1      18.764  24.680  14.834  0.00  0.00    -0.214 NA
BRANCH   4   3
ATOM      1  C   UNL     1      21.344  28.111  13.834  0.00  0.00    +0.020 A 
ATOM      2  C   UNL     1      20.309  27.148  14.132  0.00  0.00    +0.013 A 
ATOM      3  C   UNL     1      20.202  26.557  15.460  0.00  0.00    +0.019 A 
ATOM     38  C   UNL     1      21.164  26.966  16.472  0.00  0.00    +0.120 A 
ATOM     39  N   UNL     1      22.151  27.894  16.155  0.00  0.00    -0.263 NA
ATOM     40  C   UNL     1      22.265  28.468  14.880  0.00  0.00    +0.111 A 
ENDBRANCH   4   3
ENDBRANCH  10   9
BRANCH  12  13
ATOM     13  N   UNL     1      13.030  21.435  15.618  0.00  0.00    -0.281 N 
ATOM     14  C   UNL     1      12.778  21.719  16.950  0.00  0.00    +0.248 C 
ATOM     30  O   UNL     1      13.590  21.579  17.852  0.00  0.00    -0.270 OA
ATOM     31  H   UNL     1      12.216  21.409  15.003  0.00  0.00    +0.155 HD
BRANCH  14  15
ATOM     15  C   UNL     1      11.423  22.217  17.338  0.00  0.00    +0.037 A 
ATOM     16  C   UNL     1      10.205  21.595  16.812  0.00  0.00    +0.013 A 
ATOM     17  C   UNL     1       8.911  22.105  17.189  0.00  0.00    +0.005 A 
ATOM     18  C   UNL     1       8.828  23.245  18.099  0.00  0.00    -0.033 A 
ATOM     28  C   UNL     1      10.052  23.839  18.611  0.00  0.00    +0.005 A 
ATOM     29  C   UNL     1      11.322  23.342  18.242  0.00  0.00    +0.013 A 
BRANCH  18  19
ATOM     19  C   UNL     1       7.490  23.869  18.539  0.00  0.00    +0.119 C 
BRANCH  19  20
ATOM     20  N   UNL     1       6.570  23.014  19.346  0.00  0.00    -0.302 NA
ATOM     21  C   UNL     1       5.524  23.844  20.096  0.00  0.00    +0.066 C 
ATOM     22  C   UNL     1       4.556  22.933  20.918  0.00  0.00    -0.064 C 
ATOM     23  N   UNL     1       5.368  22.078  21.892  0.00  0.00    +0.379 N 
ATOM     24  C   UNL     1       4.456  21.262  22.707  0.00  0.00    -0.096 C 
ATOM     25  H   UNL     1       5.908  22.770  22.579  0.00  0.00    -0.082 HD
ATOM     26  C   UNL     1       6.412  21.251  21.155  0.00  0.00    -0.064 C 
ATOM     27  C   UNL     1       7.351  22.164  20.318  0.00  0.00    +0.066 C 
ENDBRANCH  19  20
ENDBRANCH  18  19
ENDBRANCH  14  15
ENDBRANCH  12  13
TORSDOF 6
ENDMDL
MODEL 5
REMARK VINA RESULT:     -13.1      3.347     13.664
REMARK  Name = C:\Users\Docking\Desktop\test protocol\1iep_ligandH.pdb
REMARK  8 active torsions:
REMARK  status: ('A' for Active; 'I' for Inactive)
REMARK    1  A    between atoms: _5  and  _11
REMARK    2  A    between atoms: _19  and  _21
REMARK    3  A    between atoms: _22  and  _66
REMARK    4  A    between atoms: _27  and  _30
REMARK    5  A    between atoms: _32  and  _33
REMARK    6  A    between atoms: _38  and  _43
REMARK    7  A    between atoms: _43  and  _46
REMARK    8  A    between atoms: _53  and  _55
REMARK                            x       y       z     vdW  Elec       q    Type
REMARK                         _______ _______ _______ _____ _____    ______ ____
ROOT
ATOM     10  C   UNL     1      16.774  23.734  19.277  0.00  0.00    +0.038 A 
ATOM     11  C   UNL     1      15.405  24.100  19.214  0.00  0.00    +0.047 A 
ATOM     12  C   UNL     1      14.364  23.206  19.697  0.00  0.00    +0.035 A 
ATOM     32  C   UNL     1      14.754  21.947  20.239  0.00  0.00    +0.024 A 
ATOM     33  C   UNL     1      16.140  21.558  20.309  0.00  0.00    +0.007 A 
ATOM     34  C   UNL     1      17.171  22.435  19.833  0.00  0.00    -0.029 A 
ATOM     35  C   UNL     1      18.641  21.963  19.927  0.00  0.00    +0.045 C 
ENDROOT
BRANCH  10   9
ATOM      4  C   UNL     1      19.398  25.637  15.737  0.00  0.00    +0.077 A 
ATOM      5  C   UNL     1      18.833  24.750  14.761  0.00  0.00    +0.048 A 
ATOM      6  C   UNL     1      17.875  23.814  15.212  0.00  0.00    +0.116 A 
ATOM      7  N   UNL     1      17.517  23.777  16.543  0.00  0.00    -0.223 NA
ATOM      8  C   UNL     1      18.083  24.645  17.458  0.00  0.00    +0.220 A 
ATOM      9  N   UNL     1      17.732  24.631  18.799  0.00  0.00    -0.283 N 
ATOM     36  H   UNL     1      18.178  25.283  19.444  0.00  0.00    +0.155 HD
ATOM     37  N   UNL     1      19.001  25.547  17.052  0.00  0.00    -0.214 NA
BRANCH   4   3
ATOM      1  C   UNL     1      21.497  28.351  13.859  0.00  0.00    +0.020 A 
ATOM      2  C   UNL     1      20.491  27.348  14.119  0.00  0.00    +0.013 A 
ATOM      3  C   UNL     1      20.420  26.682  15.414  0.00  0.00    +0.019 A 
ATOM     38  C   UNL     1      21.388  27.060  16.433  0.00  0.00    +0.120 A 
ATOM     39  N   UNL     1      22.347  28.029  16.153  0.00  0.00    -0.263 NA
ATOM     40  C   UNL     1      22.426  28.674  14.910  0.00  0.00    +0.111 A 
ENDBRANCH   4   3
ENDBRANCH  10   9
BRANCH  12  13
ATOM     13  N   UNL     1      12.958  23.520  19.652  0.00  0.00    -0.281 N 
ATOM     14  C   UNL     1      12.127  23.551  18.544  0.00  0.00    +0.248 C 
ATOM     30  O   UNL     1      12.518  23.521  17.386  0.00  0.00    -0.270 OA
ATOM     31  H   UNL     1      12.522  23.747  20.546  0.00  0.00    +0.155 HD
BRANCH  14  15
ATOM     15  C   UNL     1      10.650  23.643  18.751  0.00  0.00    +0.037 A 
ATOM     16  C   UNL     1       9.973  24.940  18.829  0.00  0.00    +0.013 A 
ATOM     17  C   UNL     1       8.549  25.001  19.047  0.00  0.00    +0.005 A 
ATOM     18  C   UNL     1       7.792  23.760  19.187  0.00  0.00    -0.033 A 
ATOM     28  C   UNL     1       8.488  22.486  19.100  0.00  0.00    +0.005 A 
ATOM     29  C   UNL     1       9.884  22.423  18.888  0.00  0.00    +0.013 A 
BRANCH  18  19
ATOM     19  C   UNL     1       6.274  23.730  19.442  0.00  0.00    +0.119 C 
BRANCH  19  20
ATOM     20  N   UNL     1       5.780  22.826  20.523  0.00  0.00    -0.302 NA
ATOM     21  C   UNL     1       4.430  22.195  20.172  0.00  0.00    +0.066 C 
ATOM     22  C   UNL     1       3.939  21.234  21.304  0.00  0.00    -0.064 C 
ATOM     23  N   UNL     1       3.849  22.007  22.621  0.00  0.00    +0.379 N 
ATOM     24  C   UNL     1       3.332  21.121  23.675  0.00  0.00    -0.096 C 
ATOM     25  H   UNL     1       3.112  22.831  22.480  0.00  0.00    -0.082 HD
ATOM     26  C   UNL     1       5.187  22.640  22.976  0.00  0.00    -0.064 C 
ATOM     27  C   UNL     1       5.680  23.569  21.833  0.00  0.00    +0.066 C 
ENDBRANCH  19  20
ENDBRANCH  18  19
ENDBRANCH  14  15
ENDBRANCH  12  13
TORSDOF 6
ENDMDL
