MODEL 1
REMARK VINA RESULT:      -9.0      0.000      0.000
REMARK  Name = C:\Users\Docking\Desktop\test protocol\1iep_ligandH.pdb
REMARK  8 active torsions:
REMARK  status: ('A' for Active; 'I' for Inactive)
REMARK    1  A    between atoms: _5  and  _11
REMARK    2  A    between atoms: _19  and  _21
REMARK    3  A    between atoms: _22  and  _66
REMARK    4  A    between atoms: _27  and  _30
REMARK    5  A    between atoms: _32  and  _33
REMARK    6  A    between atoms: _38  and  _43
REMARK    7  A    between atoms: _43  and  _46
REMARK    8  A    between atoms: _53  and  _55
REMARK                            x       y       z     vdW  Elec       q    Type
REMARK                         _______ _______ _______ _____ _____    ______ ____
ROOT
ATOM     10  C   UNL     1      -3.775  -9.292  17.442  0.00  0.00    +0.038 A 
ATOM     11  C   UNL     1      -4.267 -10.593  17.717  0.00  0.00    +0.047 A 
ATOM     12  C   UNL     1      -4.207 -11.153  19.058  0.00  0.00    +0.035 A 
ATOM     32  C   UNL     1      -3.641 -10.358  20.097  0.00  0.00    +0.024 A 
ATOM     33  C   UNL     1      -3.136  -9.033  19.836  0.00  0.00    +0.007 A 
ATOM     34  C   UNL     1      -3.190  -8.477  18.514  0.00  0.00    -0.029 A 
ATOM     35  C   UNL     1      -2.628  -7.054  18.290  0.00  0.00    +0.045 C 
ENDROOT
BRANCH  10   9
ATOM      4  C   UNL     1      -1.855  -8.350  13.146  0.00  0.00    +0.077 A 
ATOM      5  C   UNL     1      -0.570  -8.848  13.545  0.00  0.00    +0.048 A 
ATOM      6  C   UNL     1      -0.443  -9.330  14.867  0.00  0.00    +0.116 A 
ATOM      7  N   UNL     1      -1.528  -9.312  15.717  0.00  0.00    -0.223 NA
ATOM      8  C   UNL     1      -2.752  -8.824  15.301  0.00  0.00    +0.220 A 
ATOM      9  N   UNL     1      -3.858  -8.804  16.136  0.00  0.00    -0.283 N 
ATOM     36  H   UNL     1      -4.743  -8.429  15.794  0.00  0.00    +0.155 HD
ATOM     37  N   UNL     1      -2.899  -8.357  14.043  0.00  0.00    -0.214 NA
BRANCH   4   3
ATOM      1  C   UNL     1      -1.714  -6.233   9.859  0.00  0.00    +0.020 A 
ATOM      2  C   UNL     1      -1.391  -6.718  11.182  0.00  0.00    +0.013 A 
ATOM      3  C   UNL     1      -2.148  -7.810  11.780  0.00  0.00    +0.019 A 
ATOM     38  C   UNL     1      -3.233  -8.396  11.008  0.00  0.00    +0.120 A 
ATOM     39  N   UNL     1      -3.522  -7.908   9.738  0.00  0.00    -0.263 NA
ATOM     40  C   UNL     1      -2.802  -6.856   9.152  0.00  0.00    +0.111 A 
ENDBRANCH   4   3
ENDBRANCH  10   9
BRANCH  12  13
ATOM     13  N   UNL     1      -4.682 -12.472  19.396  0.00  0.00    -0.281 N 
ATOM     14  C   UNL     1      -5.885 -12.817  19.991  0.00  0.00    +0.248 C 
ATOM     30  O   UNL     1      -6.647 -12.022  20.521  0.00  0.00    -0.270 OA
ATOM     31  H   UNL     1      -4.057 -13.245  19.168  0.00  0.00    +0.155 HD
BRANCH  14  15
ATOM     15  C   UNL     1      -6.293 -14.254  20.013  0.00  0.00    +0.037 A 
ATOM     16  C   UNL     1      -7.704 -14.643  20.078  0.00  0.00    +0.013 A 
ATOM     17  C   UNL     1      -8.070 -16.036  20.116  0.00  0.00    +0.005 A 
ATOM     18  C   UNL     1      -7.021 -17.053  20.086  0.00  0.00    -0.033 A 
ATOM     28  C   UNL     1      -5.629 -16.640  20.016  0.00  0.00    +0.005 A 
ATOM     29  C   UNL     1      -5.267 -15.275  19.981  0.00  0.00    +0.013 A 
BRANCH  18  19
ATOM     19  C   UNL     1      -7.319 -18.563  20.144  0.00  0.00    +0.119 C 
BRANCH  19  20
ATOM     20  N   UNL     1      -7.615 -19.252  18.852  0.00  0.00    -0.302 NA
ATOM     21  C   UNL     1      -8.613 -20.399  19.028  0.00  0.00    +0.066 C 
ATOM     22  C   UNL     1      -8.929 -21.094  17.664  0.00  0.00    -0.064 C 
ATOM     23  N   UNL     1      -7.627 -21.599  17.039  0.00  0.00    +0.379 N 
ATOM     24  C   UNL     1      -7.927 -22.304  15.784  0.00  0.00    -0.096 C 
ATOM     25  H   UNL     1      -7.179 -22.338  17.743  0.00  0.00    -0.082 HD
ATOM     26  C   UNL     1      -6.628 -20.465  16.862  0.00  0.00    -0.064 C 
ATOM     27  C   UNL     1      -6.344 -19.762  18.220  0.00  0.00    +0.066 C 
ENDBRANCH  19  20
ENDBRANCH  18  19
ENDBRANCH  14  15
ENDBRANCH  12  13
TORSDOF 6
ENDMDL
MODEL 2
REMARK VINA RESULT:      -9.0      2.209      3.241
REMARK  Name = C:\Users\Docking\Desktop\test protocol\1iep_ligandH.pdb
REMARK  8 active torsions:
REMARK  status: ('A' for Active; 'I' for Inactive)
REMARK    1  A    between atoms: _5  and  _11
REMARK    2  A    between atoms: _19  and  _21
REMARK    3  A    between atoms: _22  and  _66
REMARK    4  A    between atoms: _27  and  _30
REMARK    5  A    between atoms: _32  and  _33
REMARK    6  A    between atoms: _38  and  _43
REMARK    7  A    between atoms: _43  and  _46
REMARK    8  A    between atoms: _53  and  _55
REMARK                            x       y       z     vdW  Elec       q    Type
REMARK                         _______ _______ _______ _____ _____    ______ ____
ROOT
ATOM     10  C   UNL     1      -3.863  -9.338  17.419  0.00  0.00    +0.038 A 
ATOM     11  C   UNL     1      -4.531 -10.553  17.723  0.00  0.00    +0.047 A 
ATOM     12  C   UNL     1      -4.498 -11.114  19.065  0.00  0.00    +0.035 A 
ATOM     32  C   UNL     1      -3.777 -10.410  20.074  0.00  0.00    +0.024 A 
ATOM     33  C   UNL     1      -3.093  -9.175  19.782  0.00  0.00    +0.007 A 
ATOM     34  C   UNL     1      -3.120  -8.618  18.460  0.00  0.00    -0.029 A 
ATOM     35  C   UNL     1      -2.362  -7.295  18.202  0.00  0.00    +0.045 C 
ENDROOT
BRANCH  10   9
ATOM      4  C   UNL     1      -1.887  -8.393  13.148  0.00  0.00    +0.077 A 
ATOM      5  C   UNL     1      -0.610  -8.900  13.561  0.00  0.00    +0.048 A 
ATOM      6  C   UNL     1      -0.502  -9.389  14.882  0.00  0.00    +0.116 A 
ATOM      7  N   UNL     1      -1.596  -9.367  15.720  0.00  0.00    -0.223 NA
ATOM      8  C   UNL     1      -2.813  -8.869  15.291  0.00  0.00    +0.220 A 
ATOM      9  N   UNL     1      -3.928  -8.845  16.114  0.00  0.00    -0.283 N 
ATOM     36  H   UNL     1      -4.806  -8.463  15.763  0.00  0.00    +0.155 HD
ATOM     37  N   UNL     1      -2.941  -8.396  14.034  0.00  0.00    -0.214 NA
BRANCH   4   3
ATOM      1  C   UNL     1      -1.669  -6.292   9.856  0.00  0.00    +0.020 A 
ATOM      2  C   UNL     1      -1.363  -6.784  11.180  0.00  0.00    +0.013 A 
ATOM      3  C   UNL     1      -2.160  -7.845  11.782  0.00  0.00    +0.019 A 
ATOM     38  C   UNL     1      -3.268  -8.391  11.013  0.00  0.00    +0.120 A 
ATOM     39  N   UNL     1      -3.540  -7.895   9.741  0.00  0.00    -0.263 NA
ATOM     40  C   UNL     1      -2.781  -6.873   9.152  0.00  0.00    +0.111 A 
ENDBRANCH   4   3
ENDBRANCH  10   9
BRANCH  12  13
ATOM     13  N   UNL     1      -5.149 -12.347  19.431  0.00  0.00    -0.281 N 
ATOM     14  C   UNL     1      -6.242 -12.518  20.265  0.00  0.00    +0.248 C 
ATOM     30  O   UNL     1      -6.696 -11.650  20.996  0.00  0.00    -0.270 OA
ATOM     31  H   UNL     1      -4.757 -13.197  19.026  0.00  0.00    +0.155 HD
BRANCH  14  15
ATOM     15  C   UNL     1      -6.920 -13.849  20.303  0.00  0.00    +0.037 A 
ATOM     16  C   UNL     1      -6.199 -15.079  19.965  0.00  0.00    +0.013 A 
ATOM     17  C   UNL     1      -6.882 -16.349  19.993  0.00  0.00    +0.005 A 
ATOM     18  C   UNL     1      -8.294 -16.394  20.362  0.00  0.00    -0.033 A 
ATOM     28  C   UNL     1      -8.984 -15.159  20.698  0.00  0.00    +0.005 A 
ATOM     29  C   UNL     1      -8.319 -13.913  20.670  0.00  0.00    +0.013 A 
BRANCH  18  19
ATOM     19  C   UNL     1      -9.108 -17.701  20.398  0.00  0.00    +0.119 C 
BRANCH  19  20
ATOM     20  N   UNL     1     -10.014 -17.911  21.567  0.00  0.00    -0.302 NA
ATOM     21  C   UNL     1      -9.243 -17.965  22.889  0.00  0.00    +0.066 C 
ATOM     22  C   UNL     1     -10.208 -18.162  24.103  0.00  0.00    -0.064 C 
ATOM     23  N   UNL     1     -11.025 -19.440  23.899  0.00  0.00    +0.379 N 
ATOM     24  C   UNL     1     -11.892 -19.659  25.066  0.00  0.00    -0.096 C 
ATOM     25  H   UNL     1     -10.309 -20.293  23.844  0.00  0.00    -0.082 HD
ATOM     26  C   UNL     1     -11.792 -19.395  22.586  0.00  0.00    -0.064 C 
ATOM     27  C   UNL     1     -10.827 -19.170  21.389  0.00  0.00    +0.066 C 
ENDBRANCH  19  20
ENDBRANCH  18  19
ENDBRANCH  14  15
ENDBRANCH  12  13
TORSDOF 6
ENDMDL
MODEL 3
REMARK VINA RESULT:      -8.8      3.553     12.298
REMARK  Name = C:\Users\Docking\Desktop\test protocol\1iep_ligandH.pdb
REMARK  8 active torsions:
REMARK  status: ('A' for Active; 'I' for Inactive)
REMARK    1  A    between atoms: _5  and  _11
REMARK    2  A    between atoms: _19  and  _21
REMARK    3  A    between atoms: _22  and  _66
REMARK    4  A    between atoms: _27  and  _30
REMARK    5  A    between atoms: _32  and  _33
REMARK    6  A    between atoms: _38  and  _43
REMARK    7  A    between atoms: _43  and  _46
REMARK    8  A    between atoms: _53  and  _55
REMARK                            x       y       z     vdW  Elec       q    Type
REMARK                         _______ _______ _______ _____ _____    ______ ____
ROOT
ATOM     10  C   UNL     1      -8.139 -17.140  20.068  0.00  0.00    +0.038 A 
ATOM     11  C   UNL     1      -7.478 -15.917  19.786  0.00  0.00    +0.047 A 
ATOM     12  C   UNL     1      -7.994 -14.650  20.281  0.00  0.00    +0.035 A 
ATOM     32  C   UNL     1      -9.186 -14.666  21.063  0.00  0.00    +0.024 A 
ATOM     33  C   UNL     1      -9.871 -15.899  21.358  0.00  0.00    +0.007 A 
ATOM     34  C   UNL     1      -9.368 -17.151  20.870  0.00  0.00    -0.029 A 
ATOM     35  C   UNL     1     -10.148 -18.442  21.213  0.00  0.00    +0.045 C 
ENDROOT
BRANCH  10   9
ATOM      4  C   UNL     1      -7.613 -20.420  16.604  0.00  0.00    +0.077 A 
ATOM      5  C   UNL     1      -8.511 -19.724  15.727  0.00  0.00    +0.048 A 
ATOM      6  C   UNL     1      -9.092 -18.530  16.208  0.00  0.00    +0.116 A 
ATOM      7  N   UNL     1      -8.791 -18.074  17.474  0.00  0.00    -0.223 NA
ATOM      8  C   UNL     1      -7.923 -18.770  18.294  0.00  0.00    +0.220 A 
ATOM      9  N   UNL     1      -7.599 -18.326  19.567  0.00  0.00    -0.283 N 
ATOM     36  H   UNL     1      -6.960 -18.872  20.145  0.00  0.00    +0.155 HD
ATOM     37  N   UNL     1      -7.355 -19.914  17.859  0.00  0.00    -0.214 NA
BRANCH   4   3
ATOM      1  C   UNL     1      -6.912 -24.125  15.565  0.00  0.00    +0.020 A 
ATOM      2  C   UNL     1      -7.632 -22.922  15.912  0.00  0.00    +0.013 A 
ATOM      3  C   UNL     1      -6.917 -21.694  16.238  0.00  0.00    +0.019 A 
ATOM     38  C   UNL     1      -5.463 -21.718  16.203  0.00  0.00    +0.120 A 
ATOM     39  N   UNL     1      -4.796 -22.892  15.866  0.00  0.00    -0.263 NA
ATOM     40  C   UNL     1      -5.473 -24.080  15.552  0.00  0.00    +0.111 A 
ENDBRANCH   4   3
ENDBRANCH  10   9
BRANCH  12  13
ATOM     13  N   UNL     1      -7.370 -13.377  20.020  0.00  0.00    -0.281 N 
ATOM     14  C   UNL     1      -6.213 -12.864  20.584  0.00  0.00    +0.248 C 
ATOM     30  O   UNL     1      -5.653 -13.336  21.562  0.00  0.00    -0.270 OA
ATOM     31  H   UNL     1      -7.837 -12.782  19.336  0.00  0.00    +0.155 HD
BRANCH  14  15
ATOM     15  C   UNL     1      -5.598 -11.641  19.983  0.00  0.00    +0.037 A 
ATOM     16  C   UNL     1      -5.761 -10.325  20.605  0.00  0.00    +0.013 A 
ATOM     17  C   UNL     1      -5.171  -9.159  19.996  0.00  0.00    +0.005 A 
ATOM     18  C   UNL     1      -4.411  -9.306  18.757  0.00  0.00    -0.033 A 
ATOM     28  C   UNL     1      -4.261 -10.624  18.164  0.00  0.00    +0.005 A 
ATOM     29  C   UNL     1      -4.838 -11.769  18.758  0.00  0.00    +0.013 A 
BRANCH  18  19
ATOM     19  C   UNL     1      -3.765  -8.114  18.026  0.00  0.00    +0.119 C 
BRANCH  19  20
ATOM     20  N   UNL     1      -2.406  -7.690  18.478  0.00  0.00    -0.302 NA
ATOM     21  C   UNL     1      -2.469  -6.539  19.486  0.00  0.00    +0.066 C 
ATOM     22  C   UNL     1      -1.040  -6.124  19.965  0.00  0.00    -0.064 C 
ATOM     23  N   UNL     1      -0.192  -5.735  18.753  0.00  0.00    +0.379 N 
ATOM     24  C   UNL     1       1.134  -5.288  19.205  0.00  0.00    -0.096 C 
ATOM     25  H   UNL     1      -0.690  -4.870  18.256  0.00  0.00    -0.082 HD
ATOM     26  C   UNL     1      -0.126  -6.872  17.744  0.00  0.00    -0.064 C 
ATOM     27  C   UNL     1      -1.553  -7.298  17.297  0.00  0.00    +0.066 C 
ENDBRANCH  19  20
ENDBRANCH  18  19
ENDBRANCH  14  15
ENDBRANCH  12  13
TORSDOF 6
ENDMDL
MODEL 4
REMARK VINA RESULT:      -8.8      3.752      7.573
REMARK  Name = C:\Users\Docking\Desktop\test protocol\1iep_ligandH.pdb
REMARK  8 active torsions:
REMARK  status: ('A' for Active; 'I' for Inactive)
REMARK    1  A    between atoms: _5  and  _11
REMARK    2  A    between atoms: _19  and  _21
REMARK    3  A    between atoms: _22  and  _66
REMARK    4  A    between atoms: _27  and  _30
REMARK    5  A    between atoms: _32  and  _33
REMARK    6  A    between atoms: _38  and  _43
REMARK    7  A    between atoms: _43  and  _46
REMARK    8  A    between atoms: _53  and  _55
REMARK                            x       y       z     vdW  Elec       q    Type
REMARK                         _______ _______ _______ _____ _____    ______ ____
ROOT
ATOM     10  C   UNL     1      -7.818 -14.860  19.846  0.00  0.00    +0.038 A 
ATOM     11  C   UNL     1      -7.662 -16.032  19.062  0.00  0.00    +0.047 A 
ATOM     12  C   UNL     1      -8.225 -17.303  19.489  0.00  0.00    +0.035 A 
ATOM     32  C   UNL     1      -8.944 -17.345  20.719  0.00  0.00    +0.024 A 
ATOM     33  C   UNL     1      -9.112 -16.164  21.529  0.00  0.00    +0.007 A 
ATOM     34  C   UNL     1      -8.556 -14.908  21.114  0.00  0.00    -0.029 A 
ATOM     35  C   UNL     1      -8.762 -13.675  22.026  0.00  0.00    +0.045 C 
ENDROOT
BRANCH  10   9
ATOM      4  C   UNL     1      -4.098 -11.886  19.252  0.00  0.00    +0.077 A 
ATOM      5  C   UNL     1      -3.203 -12.775  19.933  0.00  0.00    +0.048 A 
ATOM      6  C   UNL     1      -3.740 -13.984  20.428  0.00  0.00    +0.116 A 
ATOM      7  N   UNL     1      -5.076 -14.273  20.249  0.00  0.00    -0.223 NA
ATOM      8  C   UNL     1      -5.913 -13.393  19.588  0.00  0.00    +0.220 A 
ATOM      9  N   UNL     1      -7.257 -13.666  19.389  0.00  0.00    -0.283 N 
ATOM     36  H   UNL     1      -7.843 -12.987  18.903  0.00  0.00    +0.155 HD
ATOM     37  N   UNL     1      -5.424 -12.230  19.107  0.00  0.00    -0.214 NA
BRANCH   4   3
ATOM      1  C   UNL     1      -3.693  -8.828  16.846  0.00  0.00    +0.020 A 
ATOM      2  C   UNL     1      -4.126 -10.106  17.362  0.00  0.00    +0.013 A 
ATOM      3  C   UNL     1      -3.680 -10.572  18.669  0.00  0.00    +0.019 A 
ATOM     38  C   UNL     1      -2.788  -9.714  19.434  0.00  0.00    +0.120 A 
ATOM     39  N   UNL     1      -2.385  -8.489  18.911  0.00  0.00    -0.263 NA
ATOM     40  C   UNL     1      -2.808  -8.031  17.654  0.00  0.00    +0.111 A 
ENDBRANCH   4   3
ENDBRANCH  10   9
BRANCH  12  13
ATOM     13  N   UNL     1      -8.091 -18.527  18.739  0.00  0.00    -0.281 N 
ATOM     14  C   UNL     1      -8.433 -18.757  17.416  0.00  0.00    +0.248 C 
ATOM     30  O   UNL     1      -9.109 -18.000  16.735  0.00  0.00    -0.270 OA
ATOM     31  H   UNL     1      -7.696 -19.321  19.244  0.00  0.00    +0.155 HD
BRANCH  14  15
ATOM     15  C   UNL     1      -7.971 -20.018  16.759  0.00  0.00    +0.037 A 
ATOM     16  C   UNL     1      -6.571 -20.441  16.828  0.00  0.00    +0.013 A 
ATOM     17  C   UNL     1      -6.148 -21.653  16.171  0.00  0.00    +0.005 A 
ATOM     18  C   UNL     1      -7.129 -22.451  15.440  0.00  0.00    -0.033 A 
ATOM     28  C   UNL     1      -8.514 -22.010  15.393  0.00  0.00    +0.005 A 
ATOM     29  C   UNL     1      -8.931 -20.823  16.034  0.00  0.00    +0.013 A 
BRANCH  18  19
ATOM     19  C   UNL     1      -6.764 -23.746  14.692  0.00  0.00    +0.119 C 
BRANCH  19  20
ATOM     20  N   UNL     1      -7.354 -25.020  15.202  0.00  0.00    -0.302 NA
ATOM     21  C   UNL     1      -6.593 -25.560  16.416  0.00  0.00    +0.066 C 
ATOM     22  C   UNL     1      -7.238 -26.881  16.950  0.00  0.00    -0.064 C 
ATOM     23  N   UNL     1      -7.271 -27.919  15.827  0.00  0.00    +0.379 N 
ATOM     24  C   UNL     1      -7.823 -29.181  16.342  0.00  0.00    -0.096 C 
ATOM     25  H   UNL     1      -6.218 -28.112  15.515  0.00  0.00    -0.082 HD
ATOM     26  C   UNL     1      -8.023 -27.389  14.614  0.00  0.00    -0.064 C 
ATOM     27  C   UNL     1      -7.392 -26.061  14.110  0.00  0.00    +0.066 C 
ENDBRANCH  19  20
ENDBRANCH  18  19
ENDBRANCH  14  15
ENDBRANCH  12  13
TORSDOF 6
ENDMDL
MODEL 5
REMARK VINA RESULT:      -8.4      4.763      7.394
REMARK  Name = C:\Users\Docking\Desktop\test protocol\1iep_ligandH.pdb
REMARK  8 active torsions:
REMARK  status: ('A' for Active; 'I' for Inactive)
REMARK    1  A    between atoms: _5  and  _11
REMARK    2  A    between atoms: _19  and  _21
REMARK    3  A    between atoms: _22  and  _66
REMARK    4  A    between atoms: _27  and  _30
REMARK    5  A    between atoms: _32  and  _33
REMARK    6  A    between atoms: _38  and  _43
REMARK    7  A    between atoms: _43  and  _46
REMARK    8  A    between atoms: _53  and  _55
REMARK                            x       y       z     vdW  Elec       q    Type
REMARK                         _______ _______ _______ _____ _____    ______ ____
ROOT
ATOM     10  C   UNL     1      -8.338 -13.105  21.451  0.00  0.00    +0.038 A 
ATOM     11  C   UNL     1      -8.135 -14.247  20.634  0.00  0.00    +0.047 A 
ATOM     12  C   UNL     1      -8.706 -15.537  20.989  0.00  0.00    +0.035 A 
ATOM     32  C   UNL     1      -9.481 -15.628  22.181  0.00  0.00    +0.024 A 
ATOM     33  C   UNL     1      -9.697 -14.478  23.023  0.00  0.00    +0.007 A 
ATOM     34  C   UNL     1      -9.134 -13.203  22.680  0.00  0.00    -0.029 A 
ATOM     35  C   UNL     1      -9.393 -12.005  23.623  0.00  0.00    +0.045 C 
ENDROOT
BRANCH  10   9
ATOM      4  C   UNL     1      -4.675 -10.008  21.301  0.00  0.00    +0.077 A 
ATOM      5  C   UNL     1      -3.838 -10.869  22.086  0.00  0.00    +0.048 A 
ATOM      6  C   UNL     1      -4.390 -12.097  22.514  0.00  0.00    +0.116 A 
ATOM      7  N   UNL     1      -5.684 -12.429  22.177  0.00  0.00    -0.223 NA
ATOM      8  C   UNL     1      -6.465 -11.575  21.420  0.00  0.00    +0.220 A 
ATOM      9  N   UNL     1      -7.767 -11.892  21.062  0.00  0.00    -0.283 N 
ATOM     36  H   UNL     1      -8.312 -11.232  20.509  0.00  0.00    +0.155 HD
ATOM     37  N   UNL     1      -5.961 -10.396  21.000  0.00  0.00    -0.214 NA
BRANCH   4   3
ATOM      1  C   UNL     1      -3.551  -6.268  21.068  0.00  0.00    +0.020 A 
ATOM      2  C   UNL     1      -3.976  -7.530  21.630  0.00  0.00    +0.013 A 
ATOM      3  C   UNL     1      -4.233  -8.679  20.772  0.00  0.00    +0.019 A 
ATOM     38  C   UNL     1      -4.049  -8.517  19.337  0.00  0.00    +0.120 A 
ATOM     39  N   UNL     1      -3.641  -7.290  18.824  0.00  0.00    -0.263 NA
ATOM     40  C   UNL     1      -3.391  -6.177  19.641  0.00  0.00    +0.111 A 
ENDBRANCH   4   3
ENDBRANCH  10   9
BRANCH  12  13
ATOM     13  N   UNL     1      -8.527 -16.733  20.203  0.00  0.00    -0.281 N 
ATOM     14  C   UNL     1      -9.434 -17.759  19.996  0.00  0.00    +0.248 C 
ATOM     30  O   UNL     1     -10.467 -17.908  20.631  0.00  0.00    -0.270 OA
ATOM     31  H   UNL     1      -7.621 -16.835  19.745  0.00  0.00    +0.155 HD
BRANCH  14  15
ATOM     15  C   UNL     1      -9.144 -18.776  18.939  0.00  0.00    +0.037 A 
ATOM     16  C   UNL     1      -9.233 -20.211  19.220  0.00  0.00    +0.013 A 
ATOM     17  C   UNL     1      -8.932 -21.170  18.187  0.00  0.00    +0.005 A 
ATOM     18  C   UNL     1      -8.540 -20.697  16.862  0.00  0.00    -0.033 A 
ATOM     28  C   UNL     1      -8.465 -19.267  16.609  0.00  0.00    +0.005 A 
ATOM     29  C   UNL     1      -8.758 -18.324  17.619  0.00  0.00    +0.013 A 
BRANCH  18  19
ATOM     19  C   UNL     1      -8.181 -21.649  15.706  0.00  0.00    +0.119 C 
BRANCH  19  20
ATOM     20  N   UNL     1      -7.124 -22.672  15.966  0.00  0.00    -0.302 NA
ATOM     21  C   UNL     1      -5.716 -22.109  15.753  0.00  0.00    +0.066 C 
ATOM     22  C   UNL     1      -4.622 -23.186  16.052  0.00  0.00    -0.064 C 
ATOM     23  N   UNL     1      -4.857 -24.408  15.162  0.00  0.00    +0.379 N 
ATOM     24  C   UNL     1      -3.797 -25.399  15.398  0.00  0.00    -0.096 C 
ATOM     25  H   UNL     1      -4.778 -24.074  14.101  0.00  0.00    -0.082 HD
ATOM     26  C   UNL     1      -6.257 -24.972  15.365  0.00  0.00    -0.064 C 
ATOM     27  C   UNL     1      -7.335 -23.885  15.094  0.00  0.00    +0.066 C 
ENDBRANCH  19  20
ENDBRANCH  18  19
ENDBRANCH  14  15
ENDBRANCH  12  13
TORSDOF 6
ENDMDL
