MODEL 1
REMARK VINA RESULT:      -7.0      0.000      0.000
REMARK  Name = C:\Users\Docking\Desktop\test protocol\1iep_ligandH.pdb
REMARK  8 active torsions:
REMARK  status: ('A' for Active; 'I' for Inactive)
REMARK    1  A    between atoms: _5  and  _11
REMARK    2  A    between atoms: _19  and  _21
REMARK    3  A    between atoms: _22  and  _66
REMARK    4  A    between atoms: _27  and  _30
REMARK    5  A    between atoms: _32  and  _33
REMARK    6  A    between atoms: _38  and  _43
REMARK    7  A    between atoms: _43  and  _46
REMARK    8  A    between atoms: _53  and  _55
REMARK                            x       y       z     vdW  Elec       q    Type
REMARK                         _______ _______ _______ _____ _____    ______ ____
ROOT
ATOM     10  C   UNL     1     -14.999   5.508  10.641  0.00  0.00    +0.038 A 
ATOM     11  C   UNL     1     -16.163   5.867   9.916  0.00  0.00    +0.047 A 
ATOM     12  C   UNL     1     -16.484   7.260   9.649  0.00  0.00    +0.035 A 
ATOM     32  C   UNL     1     -15.594   8.263  10.133  0.00  0.00    +0.024 A 
ATOM     33  C   UNL     1     -14.407   7.916  10.874  0.00  0.00    +0.007 A 
ATOM     34  C   UNL     1     -14.087   6.543  11.142  0.00  0.00    -0.029 A 
ATOM     35  C   UNL     1     -12.804   6.230  11.947  0.00  0.00    +0.045 C 
ENDROOT
BRANCH  10   9
ATOM      4  C   UNL     1     -15.422   1.496  13.243  0.00  0.00    +0.077 A 
ATOM      5  C   UNL     1     -16.203   2.159  14.247  0.00  0.00    +0.048 A 
ATOM      6  C   UNL     1     -16.467   3.535  14.060  0.00  0.00    +0.116 A 
ATOM      7  N   UNL     1     -15.982   4.188  12.948  0.00  0.00    -0.223 NA
ATOM      8  C   UNL     1     -15.231   3.519  11.999  0.00  0.00    +0.220 A 
ATOM      9  N   UNL     1     -14.740   4.154  10.869  0.00  0.00    -0.283 N 
ATOM     36  H   UNL     1     -14.183   3.627  10.196  0.00  0.00    +0.155 HD
ATOM     37  N   UNL     1     -14.963   2.206  12.155  0.00  0.00    -0.214 NA
BRANCH   4   3
ATOM      1  C   UNL     1     -13.621  -1.927  12.661  0.00  0.00    +0.020 A 
ATOM      2  C   UNL     1     -13.927  -0.518  12.575  0.00  0.00    +0.013 A 
ATOM      3  C   UNL     1     -15.061   0.044  13.297  0.00  0.00    +0.019 A 
ATOM     38  C   UNL     1     -15.872  -0.854  14.105  0.00  0.00    +0.120 A 
ATOM     39  N   UNL     1     -15.555  -2.207  14.168  0.00  0.00    -0.263 NA
ATOM     40  C   UNL     1     -14.467  -2.760  13.476  0.00  0.00    +0.111 A 
ENDBRANCH   4   3
ENDBRANCH  10   9
BRANCH  12  13
ATOM     13  N   UNL     1     -17.656   7.685   8.924  0.00  0.00    -0.281 N 
ATOM     14  C   UNL     1     -17.734   8.121   7.612  0.00  0.00    +0.248 C 
ATOM     30  O   UNL     1     -16.769   8.415   6.922  0.00  0.00    -0.270 OA
ATOM     31  H   UNL     1     -18.534   7.662   9.442  0.00  0.00    +0.155 HD
BRANCH  14  15
ATOM     15  C   UNL     1     -19.080   8.264   6.978  0.00  0.00    +0.037 A 
ATOM     16  C   UNL     1     -19.223   8.710   5.590  0.00  0.00    +0.013 A 
ATOM     17  C   UNL     1     -20.534   8.856   5.008  0.00  0.00    +0.005 A 
ATOM     18  C   UNL     1     -21.713   8.553   5.815  0.00  0.00    -0.033 A 
ATOM     28  C   UNL     1     -21.543   8.107   7.187  0.00  0.00    +0.005 A 
ATOM     29  C   UNL     1     -20.260   7.964   7.761  0.00  0.00    +0.013 A 
BRANCH  18  19
ATOM     19  C   UNL     1     -23.151   8.701   5.283  0.00  0.00    +0.119 C 
BRANCH  19  20
ATOM     20  N   UNL     1     -23.856   7.453   4.863  0.00  0.00    -0.302 NA
ATOM     21  C   UNL     1     -23.693   7.177   3.365  0.00  0.00    +0.066 C 
ATOM     22  C   UNL     1     -24.418   5.857   2.947  0.00  0.00    -0.064 C 
ATOM     23  N   UNL     1     -25.898   5.950   3.323  0.00  0.00    +0.379 N 
ATOM     24  C   UNL     1     -26.594   4.734   2.879  0.00  0.00    -0.096 C 
ATOM     25  H   UNL     1     -26.334   6.812   2.766  0.00  0.00    -0.082 HD
ATOM     26  C   UNL     1     -26.069   6.227   4.809  0.00  0.00    -0.064 C 
ATOM     27  C   UNL     1     -25.320   7.526   5.220  0.00  0.00    +0.066 C 
ENDBRANCH  19  20
ENDBRANCH  18  19
ENDBRANCH  14  15
ENDBRANCH  12  13
TORSDOF 6
ENDMDL
MODEL 2
REMARK VINA RESULT:      -7.0      5.048      8.445
REMARK  Name = C:\Users\Docking\Desktop\test protocol\1iep_ligandH.pdb
REMARK  8 active torsions:
REMARK  status: ('A' for Active; 'I' for Inactive)
REMARK    1  A    between atoms: _5  and  _11
REMARK    2  A    between atoms: _19  and  _21
REMARK    3  A    between atoms: _22  and  _66
REMARK    4  A    between atoms: _27  and  _30
REMARK    5  A    between atoms: _32  and  _33
REMARK    6  A    between atoms: _38  and  _43
REMARK    7  A    between atoms: _43  and  _46
REMARK    8  A    between atoms: _53  and  _55
REMARK                            x       y       z     vdW  Elec       q    Type
REMARK                         _______ _______ _______ _____ _____    ______ ____
ROOT
ATOM     10  C   UNL     1     -13.472  -0.409  14.329  0.00  0.00    +0.038 A 
ATOM     11  C   UNL     1     -13.918   0.663  13.513  0.00  0.00    +0.047 A 
ATOM     12  C   UNL     1     -15.249   0.659  12.926  0.00  0.00    +0.035 A 
ATOM     32  C   UNL     1     -16.101  -0.452  13.192  0.00  0.00    +0.024 A 
ATOM     33  C   UNL     1     -15.664  -1.550  14.017  0.00  0.00    +0.007 A 
ATOM     34  C   UNL     1     -14.352  -1.553  14.597  0.00  0.00    -0.029 A 
ATOM     35  C   UNL     1     -13.934  -2.760  15.469  0.00  0.00    +0.045 C 
ENDROOT
BRANCH  10   9
ATOM      4  C   UNL     1     -10.169   1.556  17.204  0.00  0.00    +0.077 A 
ATOM      5  C   UNL     1     -11.077   2.573  17.650  0.00  0.00    +0.048 A 
ATOM      6  C   UNL     1     -12.382   2.560  17.110  0.00  0.00    +0.116 A 
ATOM      7  N   UNL     1     -12.742   1.596  16.193  0.00  0.00    -0.223 NA
ATOM      8  C   UNL     1     -11.842   0.631  15.783  0.00  0.00    +0.220 A 
ATOM      9  N   UNL     1     -12.185  -0.353  14.867  0.00  0.00    -0.283 N 
ATOM     36  H   UNL     1     -11.490  -1.043  14.584  0.00  0.00    +0.155 HD
ATOM     37  N   UNL     1     -10.589   0.622  16.282  0.00  0.00    -0.214 NA
BRANCH   4   3
ATOM      1  C   UNL     1      -6.653   2.384  18.705  0.00  0.00    +0.020 A 
ATOM      2  C   UNL     1      -8.016   2.553  18.255  0.00  0.00    +0.013 A 
ATOM      3  C   UNL     1      -8.756   1.435  17.684  0.00  0.00    +0.019 A 
ATOM     38  C   UNL     1      -8.084   0.149  17.583  0.00  0.00    +0.120 A 
ATOM     39  N   UNL     1      -6.771   0.016  18.023  0.00  0.00    -0.263 NA
ATOM     40  C   UNL     1      -6.048   1.085  18.572  0.00  0.00    +0.111 A 
ENDBRANCH   4   3
ENDBRANCH  10   9
BRANCH  12  13
ATOM     13  N   UNL     1     -15.753   1.715  12.083  0.00  0.00    -0.281 N 
ATOM     14  C   UNL     1     -15.790   3.074  12.351  0.00  0.00    +0.248 C 
ATOM     30  O   UNL     1     -15.590   3.567  13.451  0.00  0.00    -0.270 OA
ATOM     31  H   UNL     1     -16.128   1.426  11.180  0.00  0.00    +0.155 HD
BRANCH  14  15
ATOM     15  C   UNL     1     -16.111   4.020  11.240  0.00  0.00    +0.037 A 
ATOM     16  C   UNL     1     -17.313   4.858  11.278  0.00  0.00    +0.013 A 
ATOM     17  C   UNL     1     -17.608   5.750  10.185  0.00  0.00    +0.005 A 
ATOM     18  C   UNL     1     -16.697   5.810   9.044  0.00  0.00    -0.033 A 
ATOM     28  C   UNL     1     -15.509   4.972   9.035  0.00  0.00    +0.005 A 
ATOM     29  C   UNL     1     -15.218   4.095  10.104  0.00  0.00    +0.013 A 
BRANCH  18  19
ATOM     19  C   UNL     1     -16.944   6.717   7.824  0.00  0.00    +0.119 C 
BRANCH  19  20
ATOM     20  N   UNL     1     -16.084   7.931   7.690  0.00  0.00    -0.302 NA
ATOM     21  C   UNL     1     -16.352   8.951   8.799  0.00  0.00    +0.066 C 
ATOM     22  C   UNL     1     -15.429  10.204   8.656  0.00  0.00    -0.064 C 
ATOM     23  N   UNL     1     -15.638  10.834   7.279  0.00  0.00    +0.379 N 
ATOM     24  C   UNL     1     -14.814  12.046   7.163  0.00  0.00    -0.096 C 
ATOM     25  H   UNL     1     -16.707  11.144   7.208  0.00  0.00    -0.082 HD
ATOM     26  C   UNL     1     -15.376   9.826   6.169  0.00  0.00    -0.064 C 
ATOM     27  C   UNL     1     -16.278   8.572   6.338  0.00  0.00    +0.066 C 
ENDBRANCH  19  20
ENDBRANCH  18  19
ENDBRANCH  14  15
ENDBRANCH  12  13
TORSDOF 6
ENDMDL
MODEL 3
REMARK VINA RESULT:      -6.9     18.442     19.864
REMARK  Name = C:\Users\Docking\Desktop\test protocol\1iep_ligandH.pdb
REMARK  8 active torsions:
REMARK  status: ('A' for Active; 'I' for Inactive)
REMARK    1  A    between atoms: _5  and  _11
REMARK    2  A    between atoms: _19  and  _21
REMARK    3  A    between atoms: _22  and  _66
REMARK    4  A    between atoms: _27  and  _30
REMARK    5  A    between atoms: _32  and  _33
REMARK    6  A    between atoms: _38  and  _43
REMARK    7  A    between atoms: _43  and  _46
REMARK    8  A    between atoms: _53  and  _55
REMARK                            x       y       z     vdW  Elec       q    Type
REMARK                         _______ _______ _______ _____ _____    ______ ____
ROOT
ATOM     10  C   UNL     1      -9.318  -5.901  -3.843  0.00  0.00    +0.038 A 
ATOM     11  C   UNL     1      -9.646  -4.724  -4.565  0.00  0.00    +0.047 A 
ATOM     12  C   UNL     1      -8.722  -3.603  -4.636  0.00  0.00    +0.035 A 
ATOM     32  C   UNL     1      -7.471  -3.715  -3.961  0.00  0.00    +0.024 A 
ATOM     33  C   UNL     1      -7.122  -4.903  -3.222  0.00  0.00    +0.007 A 
ATOM     34  C   UNL     1      -8.031  -6.011  -3.147  0.00  0.00    -0.029 A 
ATOM     35  C   UNL     1      -7.607  -7.257  -2.334  0.00  0.00    +0.045 C 
ENDROOT
BRANCH  10   9
ATOM      4  C   UNL     1     -10.915 -10.188  -5.295  0.00  0.00    +0.077 A 
ATOM      5  C   UNL     1      -9.830 -10.344  -6.220  0.00  0.00    +0.048 A 
ATOM      6  C   UNL     1      -8.887  -9.296  -6.297  0.00  0.00    +0.116 A 
ATOM      7  N   UNL     1      -9.027  -8.178  -5.503  0.00  0.00    -0.223 NA
ATOM      8  C   UNL     1     -10.086  -8.058  -4.622  0.00  0.00    +0.220 A 
ATOM      9  N   UNL     1     -10.243  -6.947  -3.808  0.00  0.00    -0.283 N 
ATOM     36  H   UNL     1     -11.042  -6.893  -3.177  0.00  0.00    +0.155 HD
ATOM     37  N   UNL     1     -11.002  -9.045  -4.531  0.00  0.00    -0.214 NA
BRANCH   4   3
ATOM      1  C   UNL     1     -13.340 -12.787  -3.662  0.00  0.00    +0.020 A 
ATOM      2  C   UNL     1     -12.290 -11.804  -3.800  0.00  0.00    +0.013 A 
ATOM      3  C   UNL     1     -11.991 -11.210  -5.097  0.00  0.00    +0.019 A 
ATOM     38  C   UNL     1     -12.779 -11.636  -6.243  0.00  0.00    +0.120 A 
ATOM     39  N   UNL     1     -13.783 -12.585  -6.081  0.00  0.00    -0.263 NA
ATOM     40  C   UNL     1     -14.079 -13.165  -4.838  0.00  0.00    +0.111 A 
ENDBRANCH   4   3
ENDBRANCH  10   9
BRANCH  12  13
ATOM     13  N   UNL     1      -9.003  -2.380  -5.346  0.00  0.00    -0.281 N 
ATOM     14  C   UNL     1      -9.603  -2.235  -6.586  0.00  0.00    +0.248 C 
ATOM     30  O   UNL     1      -9.798  -3.151  -7.372  0.00  0.00    -0.270 OA
ATOM     31  H   UNL     1      -8.726  -1.517  -4.879  0.00  0.00    +0.155 HD
BRANCH  14  15
ATOM     15  C   UNL     1     -10.037  -0.873  -7.023  0.00  0.00    +0.037 A 
ATOM     16  C   UNL     1     -10.384  -0.597  -8.420  0.00  0.00    +0.013 A 
ATOM     17  C   UNL     1     -10.783   0.729  -8.817  0.00  0.00    +0.005 A 
ATOM     18  C   UNL     1     -10.839   1.791  -7.815  0.00  0.00    -0.033 A 
ATOM     28  C   UNL     1     -10.495   1.489  -6.436  0.00  0.00    +0.005 A 
ATOM     29  C   UNL     1     -10.103   0.190  -6.042  0.00  0.00    +0.013 A 
BRANCH  18  19
ATOM     19  C   UNL     1     -11.234   3.241  -8.154  0.00  0.00    +0.119 C 
BRANCH  19  20
ATOM     20  N   UNL     1     -12.626   3.474  -8.642  0.00  0.00    -0.302 NA
ATOM     21  C   UNL     1     -13.000   4.959  -8.624  0.00  0.00    +0.066 C 
ATOM     22  C   UNL     1     -14.451   5.187  -9.159  0.00  0.00    -0.064 C 
ATOM     23  N   UNL     1     -15.435   4.370  -8.320  0.00  0.00    +0.379 N 
ATOM     24  C   UNL     1     -16.807   4.628  -8.784  0.00  0.00    -0.096 C 
ATOM     25  H   UNL     1     -15.361   4.730  -7.267  0.00  0.00    -0.082 HD
ATOM     26  C   UNL     1     -15.069   2.893  -8.330  0.00  0.00    -0.064 C 
ATOM     27  C   UNL     1     -13.615   2.680  -7.824  0.00  0.00    +0.066 C 
ENDBRANCH  19  20
ENDBRANCH  18  19
ENDBRANCH  14  15
ENDBRANCH  12  13
TORSDOF 6
ENDMDL
MODEL 4
REMARK VINA RESULT:      -6.8     14.316     18.296
REMARK  Name = C:\Users\Docking\Desktop\test protocol\1iep_ligandH.pdb
REMARK  8 active torsions:
REMARK  status: ('A' for Active; 'I' for Inactive)
REMARK    1  A    between atoms: _5  and  _11
REMARK    2  A    between atoms: _19  and  _21
REMARK    3  A    between atoms: _22  and  _66
REMARK    4  A    between atoms: _27  and  _30
REMARK    5  A    between atoms: _32  and  _33
REMARK    6  A    between atoms: _38  and  _43
REMARK    7  A    between atoms: _43  and  _46
REMARK    8  A    between atoms: _53  and  _55
REMARK                            x       y       z     vdW  Elec       q    Type
REMARK                         _______ _______ _______ _____ _____    ______ ____
ROOT
ATOM     10  C   UNL     1     -15.323   9.167  -9.996  0.00  0.00    +0.038 A 
ATOM     11  C   UNL     1     -15.858  10.058  -9.031  0.00  0.00    +0.047 A 
ATOM     12  C   UNL     1     -16.514  11.293  -9.429  0.00  0.00    +0.035 A 
ATOM     32  C   UNL     1     -16.609  11.590 -10.820  0.00  0.00    +0.024 A 
ATOM     33  C   UNL     1     -16.070  10.697 -11.815  0.00  0.00    +0.007 A 
ATOM     34  C   UNL     1     -15.419   9.478 -11.428  0.00  0.00    -0.029 A 
ATOM     35  C   UNL     1     -14.853   8.561 -12.537  0.00  0.00    +0.045 C 
ENDROOT
BRANCH  10   9
ATOM      4  C   UNL     1     -15.444   4.549  -8.694  0.00  0.00    +0.077 A 
ATOM      5  C   UNL     1     -16.865   4.474  -8.876  0.00  0.00    +0.048 A 
ATOM      6  C   UNL     1     -17.528   5.648  -9.299  0.00  0.00    +0.116 A 
ATOM      7  N   UNL     1     -16.813   6.805  -9.521  0.00  0.00    -0.223 NA
ATOM      8  C   UNL     1     -15.444   6.844  -9.334  0.00  0.00    +0.220 A 
ATOM      9  N   UNL     1     -14.704   7.995  -9.558  0.00  0.00    -0.283 N 
ATOM     36  H   UNL     1     -13.696   7.985  -9.402  0.00  0.00    +0.155 HD
ATOM     37  N   UNL     1     -14.787   5.737  -8.929  0.00  0.00    -0.214 NA
BRANCH   4   3
ATOM      1  C   UNL     1     -12.953   2.293  -6.692  0.00  0.00    +0.020 A 
ATOM      2  C   UNL     1     -13.746   3.439  -7.074  0.00  0.00    +0.013 A 
ATOM      3  C   UNL     1     -14.601   3.393  -8.254  0.00  0.00    +0.019 A 
ATOM     38  C   UNL     1     -14.631   2.163  -9.031  0.00  0.00    +0.120 A 
ATOM     39  N   UNL     1     -13.855   1.076  -8.640  0.00  0.00    -0.263 NA
ATOM     40  C   UNL     1     -13.027   1.110  -7.507  0.00  0.00    +0.111 A 
ENDBRANCH   4   3
ENDBRANCH  10   9
BRANCH  12  13
ATOM     13  N   UNL     1     -17.070  12.240  -8.493  0.00  0.00    -0.281 N 
ATOM     14  C   UNL     1     -18.318  12.212  -7.893  0.00  0.00    +0.248 C 
ATOM     30  O   UNL     1     -19.233  11.478  -8.236  0.00  0.00    -0.270 OA
ATOM     31  H   UNL     1     -16.470  13.026  -8.243  0.00  0.00    +0.155 HD
BRANCH  14  15
ATOM     15  C   UNL     1     -18.595  13.143  -6.758  0.00  0.00    +0.037 A 
ATOM     16  C   UNL     1     -19.883  13.829  -6.635  0.00  0.00    +0.013 A 
ATOM     17  C   UNL     1     -20.118  14.736  -5.539  0.00  0.00    +0.005 A 
ATOM     18  C   UNL     1     -19.060  14.961  -4.556  0.00  0.00    -0.033 A 
ATOM     28  C   UNL     1     -17.793  14.263  -4.700  0.00  0.00    +0.005 A 
ATOM     29  C   UNL     1     -17.559  13.375  -5.773  0.00  0.00    +0.013 A 
BRANCH  18  19
ATOM     19  C   UNL     1     -19.216  15.927  -3.367  0.00  0.00    +0.119 C 
BRANCH  19  20
ATOM     20  N   UNL     1     -20.032  15.459  -2.207  0.00  0.00    -0.302 NA
ATOM     21  C   UNL     1     -19.466  14.178  -1.587  0.00  0.00    +0.066 C 
ATOM     22  C   UNL     1     -20.319  13.715  -0.361  0.00  0.00    -0.064 C 
ATOM     23  N   UNL     1     -21.769  13.508  -0.801  0.00  0.00    +0.379 N 
ATOM     24  C   UNL     1     -22.562  13.017   0.335  0.00  0.00    -0.096 C 
ATOM     25  H   UNL     1     -21.775  12.716  -1.586  0.00  0.00    -0.082 HD
ATOM     26  C   UNL     1     -22.339  14.776  -1.422  0.00  0.00    -0.064 C 
ATOM     27  C   UNL     1     -21.467  15.244  -2.621  0.00  0.00    +0.066 C 
ENDBRANCH  19  20
ENDBRANCH  18  19
ENDBRANCH  14  15
ENDBRANCH  12  13
TORSDOF 6
ENDMDL
MODEL 5
REMARK VINA RESULT:      -6.8     17.511     22.140
REMARK  Name = C:\Users\Docking\Desktop\test protocol\1iep_ligandH.pdb
REMARK  8 active torsions:
REMARK  status: ('A' for Active; 'I' for Inactive)
REMARK    1  A    between atoms: _5  and  _11
REMARK    2  A    between atoms: _19  and  _21
REMARK    3  A    between atoms: _22  and  _66
REMARK    4  A    between atoms: _27  and  _30
REMARK    5  A    between atoms: _32  and  _33
REMARK    6  A    between atoms: _38  and  _43
REMARK    7  A    between atoms: _43  and  _46
REMARK    8  A    between atoms: _53  and  _55
REMARK                            x       y       z     vdW  Elec       q    Type
REMARK                         _______ _______ _______ _____ _____    ______ ____
ROOT
ATOM     10  C   UNL     1      -8.644  -3.923  -3.705  0.00  0.00    +0.038 A 
ATOM     11  C   UNL     1      -7.541  -3.309  -3.058  0.00  0.00    +0.047 A 
ATOM     12  C   UNL     1      -6.402  -4.093  -2.606  0.00  0.00    +0.035 A 
ATOM     32  C   UNL     1      -6.418  -5.501  -2.833  0.00  0.00    +0.024 A 
ATOM     33  C   UNL     1      -7.531  -6.141  -3.489  0.00  0.00    +0.007 A 
ATOM     34  C   UNL     1      -8.659  -5.373  -3.934  0.00  0.00    -0.029 A 
ATOM     35  C   UNL     1      -9.827  -6.113  -4.626  0.00  0.00    +0.045 C 
ENDROOT
BRANCH  10   9
ATOM      4  C   UNL     1     -10.997  -1.396  -7.039  0.00  0.00    +0.077 A 
ATOM      5  C   UNL     1     -10.003  -1.673  -8.036  0.00  0.00    +0.048 A 
ATOM      6  C   UNL     1      -8.898  -2.464  -7.648  0.00  0.00    +0.116 A 
ATOM      7  N   UNL     1      -8.805  -2.937  -6.357  0.00  0.00    -0.223 NA
ATOM      8  C   UNL     1      -9.780  -2.650  -5.420  0.00  0.00    +0.220 A 
ATOM      9  N   UNL     1      -9.711  -3.122  -4.118  0.00  0.00    -0.283 N 
ATOM     36  H   UNL     1     -10.447  -2.881  -3.455  0.00  0.00    +0.155 HD
ATOM     37  N   UNL     1     -10.845  -1.896  -5.765  0.00  0.00    -0.214 NA
BRANCH   4   3
ATOM      1  C   UNL     1     -13.790   1.330  -6.775  0.00  0.00    +0.020 A 
ATOM      2  C   UNL     1     -12.594   0.574  -6.483  0.00  0.00    +0.013 A 
ATOM      3  C   UNL     1     -12.225  -0.578  -7.297  0.00  0.00    +0.019 A 
ATOM     38  C   UNL     1     -13.093  -0.940  -8.407  0.00  0.00    +0.120 A 
ATOM     39  N   UNL     1     -14.239  -0.194  -8.662  0.00  0.00    -0.263 NA
ATOM     40  C   UNL     1     -14.606   0.916  -7.885  0.00  0.00    +0.111 A 
ENDBRANCH   4   3
ENDBRANCH  10   9
BRANCH  12  13
ATOM     13  N   UNL     1      -5.258  -3.527  -1.936  0.00  0.00    -0.281 N 
ATOM     14  C   UNL     1      -4.242  -2.762  -2.485  0.00  0.00    +0.248 C 
ATOM     30  O   UNL     1      -4.050  -2.626  -3.684  0.00  0.00    -0.270 OA
ATOM     31  H   UNL     1      -5.189  -3.713  -0.936  0.00  0.00    +0.155 HD
BRANCH  14  15
ATOM     15  C   UNL     1      -3.294  -2.056  -1.569  0.00  0.00    +0.037 A 
ATOM     16  C   UNL     1      -3.553  -0.688  -1.115  0.00  0.00    +0.013 A 
ATOM     17  C   UNL     1      -2.614  -0.024  -0.246  0.00  0.00    +0.005 A 
ATOM     18  C   UNL     1      -1.407  -0.731   0.176  0.00  0.00    -0.033 A 
ATOM     28  C   UNL     1      -1.178  -2.090  -0.285  0.00  0.00    +0.005 A 
ATOM     29  C   UNL     1      -2.095  -2.743  -1.138  0.00  0.00    +0.013 A 
BRANCH  18  19
ATOM     19  C   UNL     1      -0.340  -0.093   1.086  0.00  0.00    +0.119 C 
BRANCH  19  20
ATOM     20  N   UNL     1      -0.354  -0.477   2.529  0.00  0.00    -0.302 NA
ATOM     21  C   UNL     1      -0.313   0.747   3.449  0.00  0.00    +0.066 C 
ATOM     22  C   UNL     1      -0.351   0.328   4.955  0.00  0.00    -0.064 C 
ATOM     23  N   UNL     1       0.820  -0.610   5.250  0.00  0.00    +0.379 N 
ATOM     24  C   UNL     1       0.821  -0.959   6.678  0.00  0.00    -0.096 C 
ATOM     25  H   UNL     1       1.762  -0.052   5.037  0.00  0.00    -0.082 HD
ATOM     26  C   UNL     1       0.789  -1.828   4.338  0.00  0.00    -0.064 C 
ATOM     27  C   UNL     1       0.798  -1.400   2.844  0.00  0.00    +0.066 C 
ENDBRANCH  19  20
ENDBRANCH  18  19
ENDBRANCH  14  15
ENDBRANCH  12  13
TORSDOF 6
ENDMDL
