MODEL 1
REMARK VINA RESULT:      -8.4      0.000      0.000
REMARK  Name = C:\Users\Docking\Desktop\test protocol\1iep_ligandH.pdb
REMARK  8 active torsions:
REMARK  status: ('A' for Active; 'I' for Inactive)
REMARK    1  A    between atoms: _5  and  _11
REMARK    2  A    between atoms: _19  and  _21
REMARK    3  A    between atoms: _22  and  _66
REMARK    4  A    between atoms: _27  and  _30
REMARK    5  A    between atoms: _32  and  _33
REMARK    6  A    between atoms: _38  and  _43
REMARK    7  A    between atoms: _43  and  _46
REMARK    8  A    between atoms: _53  and  _55
REMARK                            x       y       z     vdW  Elec       q    Type
REMARK                         _______ _______ _______ _____ _____    ______ ____
ROOT
ATOM     10  C   UNL     1      15.577 -20.636   2.677  0.00  0.00    +0.038 A 
ATOM     11  C   UNL     1      14.662 -19.970   1.822  0.00  0.00    +0.047 A 
ATOM     12  C   UNL     1      13.876 -18.841   2.294  0.00  0.00    +0.035 A 
ATOM     32  C   UNL     1      14.049 -18.415   3.643  0.00  0.00    +0.024 A 
ATOM     33  C   UNL     1      14.973 -19.081   4.527  0.00  0.00    +0.007 A 
ATOM     34  C   UNL     1      15.750 -20.197   4.067  0.00  0.00    -0.029 A 
ATOM     35  C   UNL     1      16.721 -20.877   5.060  0.00  0.00    +0.045 C 
ENDROOT
BRANCH  10   9
ATOM      4  C   UNL     1      16.227 -25.335   1.945  0.00  0.00    +0.077 A 
ATOM      5  C   UNL     1      15.026 -25.671   2.654  0.00  0.00    +0.048 A 
ATOM      6  C   UNL     1      14.274 -24.606   3.198  0.00  0.00    +0.116 A 
ATOM      7  N   UNL     1      14.699 -23.306   3.038  0.00  0.00    -0.223 NA
ATOM      8  C   UNL     1      15.863 -23.016   2.350  0.00  0.00    +0.220 A 
ATOM      9  N   UNL     1      16.306 -21.714   2.171  0.00  0.00    -0.283 N 
ATOM     36  H   UNL     1      17.174 -21.542   1.664  0.00  0.00    +0.155 HD
ATOM     37  N   UNL     1      16.601 -24.015   1.823  0.00  0.00    -0.214 NA
BRANCH   4   3
ATOM      1  C   UNL     1      18.432 -28.507   1.336  0.00  0.00    +0.020 A 
ATOM      2  C   UNL     1      17.562 -27.560   1.994  0.00  0.00    +0.013 A 
ATOM      3  C   UNL     1      17.128 -26.348   1.311  0.00  0.00    +0.019 A 
ATOM     38  C   UNL     1      17.595 -26.123  -0.049  0.00  0.00    +0.120 A 
ATOM     39  N   UNL     1      18.434 -27.052  -0.657  0.00  0.00    -0.263 NA
ATOM     40  C   UNL     1      18.860 -28.221  -0.008  0.00  0.00    +0.111 A 
ENDBRANCH   4   3
ENDBRANCH  10   9
BRANCH  12  13
ATOM     13  N   UNL     1      12.926 -18.130   1.474  0.00  0.00    -0.281 N 
ATOM     14  C   UNL     1      12.917 -16.783   1.154  0.00  0.00    +0.248 C 
ATOM     30  O   UNL     1      13.609 -15.938   1.703  0.00  0.00    -0.270 OA
ATOM     31  H   UNL     1      12.168 -18.689   1.082  0.00  0.00    +0.155 HD
BRANCH  14  15
ATOM     15  C   UNL     1      11.996 -16.301   0.080  0.00  0.00    +0.037 A 
ATOM     16  C   UNL     1      10.647 -16.853  -0.067  0.00  0.00    +0.013 A 
ATOM     17  C   UNL     1       9.785 -16.383  -1.122  0.00  0.00    +0.005 A 
ATOM     18  C   UNL     1      10.270 -15.354  -2.038  0.00  0.00    -0.033 A 
ATOM     28  C   UNL     1      11.611 -14.820  -1.866  0.00  0.00    +0.005 A 
ATOM     29  C   UNL     1      12.459 -15.279  -0.833  0.00  0.00    +0.013 A 
BRANCH  18  19
ATOM     19  C   UNL     1       9.426 -14.808  -3.206  0.00  0.00    +0.119 C 
BRANCH  19  20
ATOM     20  N   UNL     1       9.080 -13.356  -3.179  0.00  0.00    -0.302 NA
ATOM     21  C   UNL     1       8.414 -12.948  -1.862  0.00  0.00    +0.066 C 
ATOM     22  C   UNL     1       8.078 -11.421  -1.842  0.00  0.00    -0.064 C 
ATOM     23  N   UNL     1       7.177 -11.084  -3.031  0.00  0.00    +0.379 N 
ATOM     24  C   UNL     1       6.813  -9.661  -2.983  0.00  0.00    -0.096 C 
ATOM     25  H   UNL     1       6.240 -11.678  -2.923  0.00  0.00    -0.082 HD
ATOM     26  C   UNL     1       7.831 -11.489  -4.345  0.00  0.00    -0.064 C 
ATOM     27  C   UNL     1       8.187 -13.002  -4.343  0.00  0.00    +0.066 C 
ENDBRANCH  19  20
ENDBRANCH  18  19
ENDBRANCH  14  15
ENDBRANCH  12  13
TORSDOF 6
ENDMDL
MODEL 2
REMARK VINA RESULT:      -8.2      1.734      2.625
REMARK  Name = C:\Users\Docking\Desktop\test protocol\1iep_ligandH.pdb
REMARK  8 active torsions:
REMARK  status: ('A' for Active; 'I' for Inactive)
REMARK    1  A    between atoms: _5  and  _11
REMARK    2  A    between atoms: _19  and  _21
REMARK    3  A    between atoms: _22  and  _66
REMARK    4  A    between atoms: _27  and  _30
REMARK    5  A    between atoms: _32  and  _33
REMARK    6  A    between atoms: _38  and  _43
REMARK    7  A    between atoms: _43  and  _46
REMARK    8  A    between atoms: _53  and  _55
REMARK                            x       y       z     vdW  Elec       q    Type
REMARK                         _______ _______ _______ _____ _____    ______ ____
ROOT
ATOM     10  C   UNL     1      15.638 -21.151   2.760  0.00  0.00    +0.038 A 
ATOM     11  C   UNL     1      14.802 -20.421   1.876  0.00  0.00    +0.047 A 
ATOM     12  C   UNL     1      13.969 -19.330   2.358  0.00  0.00    +0.035 A 
ATOM     32  C   UNL     1      14.015 -19.007   3.745  0.00  0.00    +0.024 A 
ATOM     33  C   UNL     1      14.858 -19.739   4.657  0.00  0.00    +0.007 A 
ATOM     34  C   UNL     1      15.680 -20.818   4.189  0.00  0.00    -0.029 A 
ATOM     35  C   UNL     1      16.560 -21.572   5.213  0.00  0.00    +0.045 C 
ENDROOT
BRANCH  10   9
ATOM      4  C   UNL     1      16.415 -25.792   1.813  0.00  0.00    +0.077 A 
ATOM      5  C   UNL     1      15.177 -26.184   2.422  0.00  0.00    +0.048 A 
ATOM      6  C   UNL     1      14.373 -25.162   2.974  0.00  0.00    +0.116 A 
ATOM      7  N   UNL     1      14.785 -23.849   2.915  0.00  0.00    -0.223 NA
ATOM      8  C   UNL     1      15.986 -23.504   2.321  0.00  0.00    +0.220 A 
ATOM      9  N   UNL     1      16.417 -22.189   2.243  0.00  0.00    -0.283 N 
ATOM     36  H   UNL     1      17.312 -21.977   1.804  0.00  0.00    +0.155 HD
ATOM     37  N   UNL     1      16.773 -24.462   1.789  0.00  0.00    -0.214 NA
BRANCH   4   3
ATOM      1  C   UNL     1      18.780 -27.572  -0.744  0.00  0.00    +0.020 A 
ATOM      2  C   UNL     1      17.856 -26.613  -0.184  0.00  0.00    +0.013 A 
ATOM      3  C   UNL     1      17.373 -26.756   1.184  0.00  0.00    +0.019 A 
ATOM     38  C   UNL     1      17.849 -27.888   1.964  0.00  0.00    +0.120 A 
ATOM     39  N   UNL     1      18.738 -28.796   1.398  0.00  0.00    -0.263 NA
ATOM     40  C   UNL     1      19.208 -28.670   0.082  0.00  0.00    +0.111 A 
ENDBRANCH   4   3
ENDBRANCH  10   9
BRANCH  12  13
ATOM     13  N   UNL     1      13.094 -18.559   1.510  0.00  0.00    -0.281 N 
ATOM     14  C   UNL     1      12.765 -17.218   1.621  0.00  0.00    +0.248 C 
ATOM     30  O   UNL     1      13.007 -16.526   2.598  0.00  0.00    -0.270 OA
ATOM     31  H   UNL     1      12.666 -19.063   0.733  0.00  0.00    +0.155 HD
BRANCH  14  15
ATOM     15  C   UNL     1      12.050 -16.554   0.488  0.00  0.00    +0.037 A 
ATOM     16  C   UNL     1      10.725 -17.007   0.056  0.00  0.00    +0.013 A 
ATOM     17  C   UNL     1      10.065 -16.360  -1.050  0.00  0.00    +0.005 A 
ATOM     18  C   UNL     1      10.730 -15.251  -1.731  0.00  0.00    -0.033 A 
ATOM     28  C   UNL     1      12.042 -14.820  -1.279  0.00  0.00    +0.005 A 
ATOM     29  C   UNL     1      12.692 -15.452  -0.196  0.00  0.00    +0.013 A 
BRANCH  18  19
ATOM     19  C   UNL     1      10.109 -14.516  -2.934  0.00  0.00    +0.119 C 
BRANCH  19  20
ATOM     20  N   UNL     1       9.390 -15.346  -3.946  0.00  0.00    -0.302 NA
ATOM     21  C   UNL     1      10.338 -16.281  -4.702  0.00  0.00    +0.066 C 
ATOM     22  C   UNL     1       9.565 -17.158  -5.740  0.00  0.00    -0.064 C 
ATOM     23  N   UNL     1       8.812 -16.248  -6.712  0.00  0.00    +0.379 N 
ATOM     24  C   UNL     1       8.131 -17.068  -7.725  0.00  0.00    -0.096 C 
ATOM     25  H   UNL     1       9.566 -15.617  -7.238  0.00  0.00    -0.082 HD
ATOM     26  C   UNL     1       7.868 -15.313  -5.968  0.00  0.00    -0.064 C 
ATOM     27  C   UNL     1       8.642 -14.468  -4.918  0.00  0.00    +0.066 C 
ENDBRANCH  19  20
ENDBRANCH  18  19
ENDBRANCH  14  15
ENDBRANCH  12  13
TORSDOF 6
ENDMDL
MODEL 3
REMARK VINA RESULT:      -8.0      4.101      7.614
REMARK  Name = C:\Users\Docking\Desktop\test protocol\1iep_ligandH.pdb
REMARK  8 active torsions:
REMARK  status: ('A' for Active; 'I' for Inactive)
REMARK    1  A    between atoms: _5  and  _11
REMARK    2  A    between atoms: _19  and  _21
REMARK    3  A    between atoms: _22  and  _66
REMARK    4  A    between atoms: _27  and  _30
REMARK    5  A    between atoms: _32  and  _33
REMARK    6  A    between atoms: _38  and  _43
REMARK    7  A    between atoms: _43  and  _46
REMARK    8  A    between atoms: _53  and  _55
REMARK                            x       y       z     vdW  Elec       q    Type
REMARK                         _______ _______ _______ _____ _____    ______ ____
ROOT
ATOM     10  C   UNL     1      12.632 -14.542  -0.410  0.00  0.00    +0.038 A 
ATOM     11  C   UNL     1      12.016 -14.988  -1.607  0.00  0.00    +0.047 A 
ATOM     12  C   UNL     1      11.131 -14.119  -2.368  0.00  0.00    +0.035 A 
ATOM     32  C   UNL     1      10.899 -12.799  -1.882  0.00  0.00    +0.024 A 
ATOM     33  C   UNL     1      11.516 -12.329  -0.667  0.00  0.00    +0.007 A 
ATOM     34  C   UNL     1      12.387 -13.183   0.089  0.00  0.00    -0.029 A 
ATOM     35  C   UNL     1      13.016 -12.629   1.389  0.00  0.00    +0.045 C 
ENDROOT
BRANCH  10   9
ATOM      4  C   UNL     1      13.403 -18.516   2.167  0.00  0.00    +0.077 A 
ATOM      5  C   UNL     1      12.011 -18.862   2.161  0.00  0.00    +0.048 A 
ATOM      6  C   UNL     1      11.128 -17.986   1.489  0.00  0.00    +0.116 A 
ATOM      7  N   UNL     1      11.613 -16.853   0.873  0.00  0.00    -0.223 NA
ATOM      8  C   UNL     1      12.961 -16.548   0.900  0.00  0.00    +0.220 A 
ATOM      9  N   UNL     1      13.472 -15.418   0.280  0.00  0.00    -0.283 N 
ATOM     36  H   UNL     1      14.472 -15.224   0.329  0.00  0.00    +0.155 HD
ATOM     37  N   UNL     1      13.825 -17.367   1.536  0.00  0.00    -0.214 NA
BRANCH   4   3
ATOM      1  C   UNL     1      16.106 -21.254   2.877  0.00  0.00    +0.020 A 
ATOM      2  C   UNL     1      15.089 -20.489   2.191  0.00  0.00    +0.013 A 
ATOM      3  C   UNL     1      14.460 -19.342   2.832  0.00  0.00    +0.019 A 
ATOM     38  C   UNL     1      14.886 -18.991   4.179  0.00  0.00    +0.120 A 
ATOM     39  N   UNL     1      15.866 -19.747   4.815  0.00  0.00    -0.263 NA
ATOM     40  C   UNL     1      16.477 -20.854   4.208  0.00  0.00    +0.111 A 
ENDBRANCH   4   3
ENDBRANCH  10   9
BRANCH  12  13
ATOM     13  N   UNL     1      10.471 -14.520  -3.586  0.00  0.00    -0.281 N 
ATOM     14  C   UNL     1      10.239 -15.806  -4.045  0.00  0.00    +0.248 C 
ATOM     30  O   UNL     1      10.756 -16.810  -3.578  0.00  0.00    -0.270 OA
ATOM     31  H   UNL     1      10.134 -13.764  -4.182  0.00  0.00    +0.155 HD
BRANCH  14  15
ATOM     15  C   UNL     1       9.309 -16.004  -5.198  0.00  0.00    +0.037 A 
ATOM     16  C   UNL     1       9.392 -17.197  -6.045  0.00  0.00    +0.013 A 
ATOM     17  C   UNL     1       8.495 -17.355  -7.162  0.00  0.00    +0.005 A 
ATOM     18  C   UNL     1       7.504 -16.317  -7.437  0.00  0.00    -0.033 A 
ATOM     28  C   UNL     1       7.440 -15.147  -6.577  0.00  0.00    +0.005 A 
ATOM     29  C   UNL     1       8.319 -14.988  -5.483  0.00  0.00    +0.013 A 
BRANCH  18  19
ATOM     19  C   UNL     1       6.520 -16.392  -8.619  0.00  0.00    +0.119 C 
BRANCH  19  20
ATOM     20  N   UNL     1       5.138 -15.874  -8.393  0.00  0.00    -0.302 NA
ATOM     21  C   UNL     1       4.315 -16.803  -7.496  0.00  0.00    +0.066 C 
ATOM     22  C   UNL     1       2.880 -16.234  -7.251  0.00  0.00    -0.064 C 
ATOM     23  N   UNL     1       2.182 -16.022  -8.596  0.00  0.00    +0.379 N 
ATOM     24  C   UNL     1       0.812 -15.542  -8.367  0.00  0.00    -0.096 C 
ATOM     25  H   UNL     1       2.114 -17.013  -9.101  0.00  0.00    -0.082 HD
ATOM     26  C   UNL     1       2.995 -15.101  -9.495  0.00  0.00    -0.064 C 
ATOM     27  C   UNL     1       4.429 -15.661  -9.708  0.00  0.00    +0.066 C 
ENDBRANCH  19  20
ENDBRANCH  18  19
ENDBRANCH  14  15
ENDBRANCH  12  13
TORSDOF 6
ENDMDL
MODEL 4
REMARK VINA RESULT:      -7.8      3.941     12.451
REMARK  Name = C:\Users\Docking\Desktop\test protocol\1iep_ligandH.pdb
REMARK  8 active torsions:
REMARK  status: ('A' for Active; 'I' for Inactive)
REMARK    1  A    between atoms: _5  and  _11
REMARK    2  A    between atoms: _19  and  _21
REMARK    3  A    between atoms: _22  and  _66
REMARK    4  A    between atoms: _27  and  _30
REMARK    5  A    between atoms: _32  and  _33
REMARK    6  A    between atoms: _38  and  _43
REMARK    7  A    between atoms: _43  and  _46
REMARK    8  A    between atoms: _53  and  _55
REMARK                            x       y       z     vdW  Elec       q    Type
REMARK                         _______ _______ _______ _____ _____    ______ ____
ROOT
ATOM     10  C   UNL     1      11.885 -14.271  -1.286  0.00  0.00    +0.038 A 
ATOM     11  C   UNL     1      12.566 -15.206  -0.466  0.00  0.00    +0.047 A 
ATOM     12  C   UNL     1      13.075 -14.830   0.844  0.00  0.00    +0.035 A 
ATOM     32  C   UNL     1      12.870 -13.491   1.288  0.00  0.00    +0.024 A 
ATOM     33  C   UNL     1      12.180 -12.526   0.468  0.00  0.00    +0.007 A 
ATOM     34  C   UNL     1      11.679 -12.892  -0.826  0.00  0.00    -0.029 A 
ATOM     35  C   UNL     1      10.953 -11.815  -1.666  0.00  0.00    +0.045 C 
ENDROOT
BRANCH  10   9
ATOM      4  C   UNL     1       8.495 -16.123  -4.134  0.00  0.00    +0.077 A 
ATOM      5  C   UNL     1       7.588 -16.303  -3.037  0.00  0.00    +0.048 A 
ATOM      6  C   UNL     1       8.035 -15.912  -1.755  0.00  0.00    +0.116 A 
ATOM      7  N   UNL     1       9.297 -15.382  -1.594  0.00  0.00    -0.223 NA
ATOM      8  C   UNL     1      10.147 -15.224  -2.672  0.00  0.00    +0.220 A 
ATOM      9  N   UNL     1      11.418 -14.687  -2.535  0.00  0.00    -0.283 N 
ATOM     36  H   UNL     1      12.017 -14.593  -3.354  0.00  0.00    +0.155 HD
ATOM     37  N   UNL     1       9.744 -15.591  -3.907  0.00  0.00    -0.214 NA
BRANCH   4   3
ATOM      1  C   UNL     1       7.989 -15.954  -8.009  0.00  0.00    +0.020 A 
ATOM      2  C   UNL     1       8.320 -15.555  -6.660  0.00  0.00    +0.013 A 
ATOM      3  C   UNL     1       8.167 -16.485  -5.549  0.00  0.00    +0.019 A 
ATOM     38  C   UNL     1       7.674 -17.823  -5.839  0.00  0.00    +0.120 A 
ATOM     39  N   UNL     1       7.363 -18.179  -7.147  0.00  0.00    -0.263 NA
ATOM     40  C   UNL     1       7.504 -17.292  -8.224  0.00  0.00    +0.111 A 
ENDBRANCH   4   3
ENDBRANCH  10   9
BRANCH  12  13
ATOM     13  N   UNL     1      13.781 -15.734   1.717  0.00  0.00    -0.281 N 
ATOM     14  C   UNL     1      13.254 -16.753   2.493  0.00  0.00    +0.248 C 
ATOM     30  O   UNL     1      12.063 -16.904   2.720  0.00  0.00    -0.270 OA
ATOM     31  H   UNL     1      14.792 -15.608   1.768  0.00  0.00    +0.155 HD
BRANCH  14  15
ATOM     15  C   UNL     1      14.187 -17.738   3.121  0.00  0.00    +0.037 A 
ATOM     16  C   UNL     1      14.277 -19.117   2.632  0.00  0.00    +0.013 A 
ATOM     17  C   UNL     1      15.172 -20.052   3.267  0.00  0.00    +0.005 A 
ATOM     18  C   UNL     1      15.986 -19.610   4.397  0.00  0.00    -0.033 A 
ATOM     28  C   UNL     1      15.880 -18.235   4.858  0.00  0.00    +0.005 A 
ATOM     29  C   UNL     1      15.003 -17.317   4.239  0.00  0.00    +0.013 A 
BRANCH  18  19
ATOM     19  C   UNL     1      16.953 -20.545   5.147  0.00  0.00    +0.119 C 
BRANCH  19  20
ATOM     20  N   UNL     1      16.368 -21.434   6.195  0.00  0.00    -0.302 NA
ATOM     21  C   UNL     1      17.052 -21.248   7.553  0.00  0.00    +0.066 C 
ATOM     22  C   UNL     1      16.413 -22.169   8.643  0.00  0.00    -0.064 C 
ATOM     23  N   UNL     1      16.499 -23.627   8.188  0.00  0.00    +0.379 N 
ATOM     24  C   UNL     1      15.952 -24.501   9.236  0.00  0.00    -0.096 C 
ATOM     25  H   UNL     1      17.578 -23.880   8.066  0.00  0.00    -0.082 HD
ATOM     26  C   UNL     1      15.825 -23.821   6.837  0.00  0.00    -0.064 C 
ATOM     27  C   UNL     1      16.447 -22.879   5.769  0.00  0.00    +0.066 C 
ENDBRANCH  19  20
ENDBRANCH  18  19
ENDBRANCH  14  15
ENDBRANCH  12  13
TORSDOF 6
ENDMDL
MODEL 5
REMARK VINA RESULT:      -7.8      9.233     15.380
REMARK  Name = C:\Users\Docking\Desktop\test protocol\1iep_ligandH.pdb
REMARK  8 active torsions:
REMARK  status: ('A' for Active; 'I' for Inactive)
REMARK    1  A    between atoms: _5  and  _11
REMARK    2  A    between atoms: _19  and  _21
REMARK    3  A    between atoms: _22  and  _66
REMARK    4  A    between atoms: _27  and  _30
REMARK    5  A    between atoms: _32  and  _33
REMARK    6  A    between atoms: _38  and  _43
REMARK    7  A    between atoms: _43  and  _46
REMARK    8  A    between atoms: _53  and  _55
REMARK                            x       y       z     vdW  Elec       q    Type
REMARK                         _______ _______ _______ _____ _____    ______ ____
ROOT
ATOM     10  C   UNL     1      22.381 -33.548  -2.926  0.00  0.00    +0.038 A 
ATOM     11  C   UNL     1      21.683 -32.396  -2.484  0.00  0.00    +0.047 A 
ATOM     12  C   UNL     1      21.630 -32.042  -1.074  0.00  0.00    +0.035 A 
ATOM     32  C   UNL     1      22.303 -32.883  -0.141  0.00  0.00    +0.024 A 
ATOM     33  C   UNL     1      23.018 -34.059  -0.572  0.00  0.00    +0.007 A 
ATOM     34  C   UNL     1      23.071 -34.414  -1.961  0.00  0.00    -0.029 A 
ATOM     35  C   UNL     1      23.846 -35.690  -2.366  0.00  0.00    +0.045 C 
ENDROOT
BRANCH  10   9
ATOM      4  C   UNL     1      24.265 -33.127  -7.320  0.00  0.00    +0.077 A 
ATOM      5  C   UNL     1      25.284 -32.227  -6.862  0.00  0.00    +0.048 A 
ATOM      6  C   UNL     1      25.284 -31.892  -5.489  0.00  0.00    +0.116 A 
ATOM      7  N   UNL     1      24.331 -32.424  -4.647  0.00  0.00    -0.223 NA
ATOM      8  C   UNL     1      23.362 -33.288  -5.122  0.00  0.00    +0.220 A 
ATOM      9  N   UNL     1      22.399 -33.841  -4.291  0.00  0.00    -0.283 N 
ATOM     36  H   UNL     1      21.697 -34.468  -4.682  0.00  0.00    +0.155 HD
ATOM     37  N   UNL     1      23.339 -33.622  -6.429  0.00  0.00    -0.214 NA
BRANCH   4   3
ATOM      1  C   UNL     1      23.031 -34.922 -10.569  0.00  0.00    +0.020 A 
ATOM      2  C   UNL     1      23.113 -34.518  -9.184  0.00  0.00    +0.013 A 
ATOM      3  C   UNL     1      24.135 -33.579  -8.742  0.00  0.00    +0.019 A 
ATOM     38  C   UNL     1      25.066 -33.062  -9.733  0.00  0.00    +0.120 A 
ATOM     39  N   UNL     1      24.964 -33.469 -11.060  0.00  0.00    -0.263 NA
ATOM     40  C   UNL     1      23.985 -34.374 -11.497  0.00  0.00    +0.111 A 
ENDBRANCH   4   3
ENDBRANCH  10   9
BRANCH  12  13
ATOM     13  N   UNL     1      20.930 -30.888  -0.566  0.00  0.00    -0.281 N 
ATOM     14  C   UNL     1      21.323 -29.561  -0.619  0.00  0.00    +0.248 C 
ATOM     30  O   UNL     1      22.445 -29.185  -0.923  0.00  0.00    -0.270 OA
ATOM     31  H   UNL     1      20.035 -31.073  -0.113  0.00  0.00    +0.155 HD
BRANCH  14  15
ATOM     15  C   UNL     1      20.332 -28.499  -0.268  0.00  0.00    +0.037 A 
ATOM     16  C   UNL     1      18.898 -28.792  -0.199  0.00  0.00    +0.013 A 
ATOM     17  C   UNL     1      17.961 -27.745   0.124  0.00  0.00    +0.005 A 
ATOM     18  C   UNL     1      18.456 -26.395   0.384  0.00  0.00    -0.033 A 
ATOM     28  C   UNL     1      19.884 -26.134   0.314  0.00  0.00    +0.005 A 
ATOM     29  C   UNL     1      20.806 -27.157  -0.004  0.00  0.00    +0.013 A 
BRANCH  18  19
ATOM     19  C   UNL     1      17.527 -25.213   0.715  0.00  0.00    +0.119 C 
BRANCH  19  20
ATOM     20  N   UNL     1      16.697 -25.322   1.952  0.00  0.00    -0.302 NA
ATOM     21  C   UNL     1      15.398 -26.096   1.705  0.00  0.00    +0.066 C 
ATOM     22  C   UNL     1      14.552 -26.220   3.014  0.00  0.00    -0.064 C 
ATOM     23  N   UNL     1      14.255 -24.822   3.560  0.00  0.00    +0.379 N 
ATOM     24  C   UNL     1      13.410 -24.933   4.758  0.00  0.00    -0.096 C 
ATOM     25  H   UNL     1      13.671 -24.274   2.784  0.00  0.00    -0.082 HD
ATOM     26  C   UNL     1      15.540 -24.045   3.805  0.00  0.00    -0.064 C 
ATOM     27  C   UNL     1      16.387 -23.953   2.505  0.00  0.00    +0.066 C 
ENDBRANCH  19  20
ENDBRANCH  18  19
ENDBRANCH  14  15
ENDBRANCH  12  13
TORSDOF 6
ENDMDL
