MODEL 1
REMARK VINA RESULT:      -8.4      0.000      0.000
REMARK  Name = C:\Users\Docking\Desktop\test protocol\1iep_ligandH.pdb
REMARK  8 active torsions:
REMARK  status: ('A' for Active; 'I' for Inactive)
REMARK    1  A    between atoms: _5  and  _11
REMARK    2  A    between atoms: _19  and  _21
REMARK    3  A    between atoms: _22  and  _66
REMARK    4  A    between atoms: _27  and  _30
REMARK    5  A    between atoms: _32  and  _33
REMARK    6  A    between atoms: _38  and  _43
REMARK    7  A    between atoms: _43  and  _46
REMARK    8  A    between atoms: _53  and  _55
REMARK                            x       y       z     vdW  Elec       q    Type
REMARK                         _______ _______ _______ _____ _____    ______ ____
ROOT
ATOM     10  C   UNL     1     -43.072  35.941  24.780  0.00  0.00    +0.038 A 
ATOM     11  C   UNL     1     -44.349  36.210  24.224  0.00  0.00    +0.047 A 
ATOM     12  C   UNL     1     -44.512  37.173  23.146  0.00  0.00    +0.035 A 
ATOM     32  C   UNL     1     -43.353  37.842  22.656  0.00  0.00    +0.024 A 
ATOM     33  C   UNL     1     -42.048  37.582  23.211  0.00  0.00    +0.007 A 
ATOM     34  C   UNL     1     -41.881  36.635  24.276  0.00  0.00    -0.029 A 
ATOM     35  C   UNL     1     -40.458  36.400  24.837  0.00  0.00    +0.045 C 
ENDROOT
BRANCH  10   9
ATOM      4  C   UNL     1     -41.780  31.649  26.497  0.00  0.00    +0.077 A 
ATOM      5  C   UNL     1     -41.284  31.222  25.221  0.00  0.00    +0.048 A 
ATOM      6  C   UNL     1     -41.387  32.134  24.146  0.00  0.00    +0.116 A 
ATOM      7  N   UNL     1     -41.945  33.378  24.345  0.00  0.00    -0.223 NA
ATOM      8  C   UNL     1     -42.415  33.758  25.589  0.00  0.00    +0.220 A 
ATOM      9  N   UNL     1     -42.973  35.007  25.814  0.00  0.00    -0.283 N 
ATOM     36  H   UNL     1     -43.314  35.247  26.745  0.00  0.00    +0.155 HD
ATOM     37  N   UNL     1     -42.329  32.905  26.631  0.00  0.00    -0.214 NA
BRANCH   4   3
ATOM      1  C   UNL     1     -41.697  28.570  28.908  0.00  0.00    +0.020 A 
ATOM      2  C   UNL     1     -41.739  29.344  27.689  0.00  0.00    +0.013 A 
ATOM      3  C   UNL     1     -41.738  30.800  27.730  0.00  0.00    +0.019 A 
ATOM     38  C   UNL     1     -41.694  31.449  29.032  0.00  0.00    +0.120 A 
ATOM     39  N   UNL     1     -41.657  30.679  30.189  0.00  0.00    -0.263 NA
ATOM     40  C   UNL     1     -41.658  29.276  30.162  0.00  0.00    +0.111 A 
ENDBRANCH   4   3
ENDBRANCH  10   9
BRANCH  12  13
ATOM     13  N   UNL     1     -45.784  37.493  22.548  0.00  0.00    -0.281 N 
ATOM     14  C   UNL     1     -46.482  38.688  22.618  0.00  0.00    +0.248 C 
ATOM     30  O   UNL     1     -46.217  39.599  23.388  0.00  0.00    -0.270 OA
ATOM     31  H   UNL     1     -46.224  36.748  22.006  0.00  0.00    +0.155 HD
BRANCH  14  15
ATOM     15  C   UNL     1     -47.652  38.895  21.711  0.00  0.00    +0.037 A 
ATOM     16  C   UNL     1     -48.878  39.541  22.188  0.00  0.00    +0.013 A 
ATOM     17  C   UNL     1     -49.998  39.713  21.298  0.00  0.00    +0.005 A 
ATOM     18  C   UNL     1     -49.897  39.239  19.919  0.00  0.00    -0.033 A 
ATOM     28  C   UNL     1     -48.667  38.606  19.471  0.00  0.00    +0.005 A 
ATOM     29  C   UNL     1     -47.568  38.435  20.342  0.00  0.00    +0.013 A 
BRANCH  18  19
ATOM     19  C   UNL     1     -51.050  39.362  18.906  0.00  0.00    +0.119 C 
BRANCH  19  20
ATOM     20  N   UNL     1     -51.889  38.148  18.674  0.00  0.00    -0.302 NA
ATOM     21  C   UNL     1     -52.009  37.284  19.932  0.00  0.00    +0.066 C 
ATOM     22  C   UNL     1     -52.908  36.030  19.678  0.00  0.00    -0.064 C 
ATOM     23  N   UNL     1     -52.330  35.219  18.518  0.00  0.00    +0.379 N 
ATOM     24  C   UNL     1     -53.140  34.009  18.314  0.00  0.00    -0.096 C 
ATOM     25  H   UNL     1     -51.305  34.894  18.810  0.00  0.00    -0.082 HD
ATOM     26  C   UNL     1     -52.204  36.071  17.263  0.00  0.00    -0.064 C 
ATOM     27  C   UNL     1     -51.333  37.329  17.534  0.00  0.00    +0.066 C 
ENDBRANCH  19  20
ENDBRANCH  18  19
ENDBRANCH  14  15
ENDBRANCH  12  13
TORSDOF 6
ENDMDL
MODEL 2
REMARK VINA RESULT:      -8.3     59.921     66.765
REMARK  Name = C:\Users\Docking\Desktop\test protocol\1iep_ligandH.pdb
REMARK  8 active torsions:
REMARK  status: ('A' for Active; 'I' for Inactive)
REMARK    1  A    between atoms: _5  and  _11
REMARK    2  A    between atoms: _19  and  _21
REMARK    3  A    between atoms: _22  and  _66
REMARK    4  A    between atoms: _27  and  _30
REMARK    5  A    between atoms: _32  and  _33
REMARK    6  A    between atoms: _38  and  _43
REMARK    7  A    between atoms: _43  and  _46
REMARK    8  A    between atoms: _53  and  _55
REMARK                            x       y       z     vdW  Elec       q    Type
REMARK                         _______ _______ _______ _____ _____    ______ ____
ROOT
ATOM     10  C   UNL     1     -24.414  29.966  86.086  0.00  0.00    +0.038 A 
ATOM     11  C   UNL     1     -23.082  29.614  85.748  0.00  0.00    +0.047 A 
ATOM     12  C   UNL     1     -21.959  30.050  86.564  0.00  0.00    +0.035 A 
ATOM     32  C   UNL     1     -22.229  30.841  87.719  0.00  0.00    +0.024 A 
ATOM     33  C   UNL     1     -23.576  31.208  88.076  0.00  0.00    +0.007 A 
ATOM     34  C   UNL     1     -24.688  30.784  87.274  0.00  0.00    -0.029 A 
ATOM     35  C   UNL     1     -26.111  31.214  87.701  0.00  0.00    +0.045 C 
ENDROOT
BRANCH  10   9
ATOM      4  C   UNL     1     -26.755  29.860  81.898  0.00  0.00    +0.077 A 
ATOM      5  C   UNL     1     -25.844  30.791  81.297  0.00  0.00    +0.048 A 
ATOM      6  C   UNL     1     -24.790  31.279  82.102  0.00  0.00    +0.116 A 
ATOM      7  N   UNL     1     -24.667  30.860  83.409  0.00  0.00    -0.223 NA
ATOM      8  C   UNL     1     -25.564  29.962  83.958  0.00  0.00    +0.220 A 
ATOM      9  N   UNL     1     -25.454  29.521  85.268  0.00  0.00    -0.283 N 
ATOM     36  H   UNL     1     -26.141  28.864  85.638  0.00  0.00    +0.155 HD
ATOM     37  N   UNL     1     -26.580  29.483  83.210  0.00  0.00    -0.214 NA
BRANCH   4   3
ATOM      1  C   UNL     1     -28.927  27.614  79.544  0.00  0.00    +0.020 A 
ATOM      2  C   UNL     1     -27.772  28.166  80.214  0.00  0.00    +0.013 A 
ATOM      3  C   UNL     1     -27.917  29.253  81.175  0.00  0.00    +0.019 A 
ATOM     38  C   UNL     1     -29.255  29.762  81.437  0.00  0.00    +0.120 A 
ATOM     39  N   UNL     1     -30.348  29.212  80.775  0.00  0.00    -0.263 NA
ATOM     40  C   UNL     1     -30.221  28.167  79.847  0.00  0.00    +0.111 A 
ENDBRANCH   4   3
ENDBRANCH  10   9
BRANCH  12  13
ATOM     13  N   UNL     1     -20.585  29.730  86.266  0.00  0.00    -0.281 N 
ATOM     14  C   UNL     1     -19.647  29.144  87.100  0.00  0.00    +0.248 C 
ATOM     30  O   UNL     1     -19.788  29.000  88.306  0.00  0.00    -0.270 OA
ATOM     31  H   UNL     1     -20.265  29.964  85.326  0.00  0.00    +0.155 HD
BRANCH  14  15
ATOM     15  C   UNL     1     -18.360  28.661  86.513  0.00  0.00    +0.037 A 
ATOM     16  C   UNL     1     -17.069  29.063  87.078  0.00  0.00    +0.013 A 
ATOM     17  C   UNL     1     -15.842  28.597  86.482  0.00  0.00    +0.005 A 
ATOM     18  C   UNL     1     -15.901  27.721  85.314  0.00  0.00    -0.033 A 
ATOM     28  C   UNL     1     -17.195  27.334  84.777  0.00  0.00    +0.005 A 
ATOM     29  C   UNL     1     -18.400  27.790  85.358  0.00  0.00    +0.013 A 
BRANCH  18  19
ATOM     19  C   UNL     1     -14.642  27.193  84.600  0.00  0.00    +0.119 C 
BRANCH  19  20
ATOM     20  N   UNL     1     -13.972  28.108  83.628  0.00  0.00    -0.302 NA
ATOM     21  C   UNL     1     -14.804  28.306  82.358  0.00  0.00    +0.066 C 
ATOM     22  C   UNL     1     -14.099  29.283  81.362  0.00  0.00    -0.064 C 
ATOM     23  N   UNL     1     -12.709  28.744  81.021  0.00  0.00    +0.379 N 
ATOM     24  C   UNL     1     -12.066  29.631  80.040  0.00  0.00    -0.096 C 
ATOM     25  H   UNL     1     -12.842  27.747  80.540  0.00  0.00    -0.082 HD
ATOM     26  C   UNL     1     -11.876  28.542  82.279  0.00  0.00    -0.064 C 
ATOM     27  C   UNL     1     -12.599  27.592  83.274  0.00  0.00    +0.066 C 
ENDBRANCH  19  20
ENDBRANCH  18  19
ENDBRANCH  14  15
ENDBRANCH  12  13
TORSDOF 6
ENDMDL
MODEL 3
REMARK VINA RESULT:      -8.0      6.606      7.843
REMARK  Name = C:\Users\Docking\Desktop\test protocol\1iep_ligandH.pdb
REMARK  8 active torsions:
REMARK  status: ('A' for Active; 'I' for Inactive)
REMARK    1  A    between atoms: _5  and  _11
REMARK    2  A    between atoms: _19  and  _21
REMARK    3  A    between atoms: _22  and  _66
REMARK    4  A    between atoms: _27  and  _30
REMARK    5  A    between atoms: _32  and  _33
REMARK    6  A    between atoms: _38  and  _43
REMARK    7  A    between atoms: _43  and  _46
REMARK    8  A    between atoms: _53  and  _55
REMARK                            x       y       z     vdW  Elec       q    Type
REMARK                         _______ _______ _______ _____ _____    ______ ____
ROOT
ATOM     10  C   UNL     1     -39.842  35.932  25.045  0.00  0.00    +0.038 A 
ATOM     11  C   UNL     1     -39.666  35.607  23.676  0.00  0.00    +0.047 A 
ATOM     12  C   UNL     1     -39.587  36.646  22.660  0.00  0.00    +0.035 A 
ATOM     32  C   UNL     1     -39.689  38.005  23.075  0.00  0.00    +0.024 A 
ATOM     33  C   UNL     1     -39.870  38.354  24.462  0.00  0.00    +0.007 A 
ATOM     34  C   UNL     1     -39.951  37.334  25.468  0.00  0.00    -0.029 A 
ATOM     35  C   UNL     1     -40.151  37.765  26.940  0.00  0.00    +0.045 C 
ENDROOT
BRANCH  10   9
ATOM      4  C   UNL     1     -42.031  32.132  26.996  0.00  0.00    +0.077 A 
ATOM      5  C   UNL     1     -43.145  32.238  26.098  0.00  0.00    +0.048 A 
ATOM      6  C   UNL     1     -43.119  33.289  25.153  0.00  0.00    +0.116 A 
ATOM      7  N   UNL     1     -42.054  34.162  25.118  0.00  0.00    -0.223 NA
ATOM      8  C   UNL     1     -40.996  34.033  26.000  0.00  0.00    +0.220 A 
ATOM      9  N   UNL     1     -39.911  34.895  25.978  0.00  0.00    -0.283 N 
ATOM     36  H   UNL     1     -39.154  34.771  26.650  0.00  0.00    +0.155 HD
ATOM     37  N   UNL     1     -40.998  33.039  26.913  0.00  0.00    -0.214 NA
BRANCH   4   3
ATOM      1  C   UNL     1     -41.836  28.666  28.798  0.00  0.00    +0.020 A 
ATOM      2  C   UNL     1     -41.957  29.648  27.745  0.00  0.00    +0.013 A 
ATOM      3  C   UNL     1     -41.912  31.073  28.047  0.00  0.00    +0.019 A 
ATOM     38  C   UNL     1     -41.741  31.475  29.436  0.00  0.00    +0.120 A 
ATOM     39  N   UNL     1     -41.628  30.506  30.429  0.00  0.00    -0.263 NA
ATOM     40  C   UNL     1     -41.672  29.132  30.150  0.00  0.00    +0.111 A 
ENDBRANCH   4   3
ENDBRANCH  10   9
BRANCH  12  13
ATOM     13  N   UNL     1     -39.416  36.376  21.254  0.00  0.00    -0.281 N 
ATOM     14  C   UNL     1     -38.361  35.729  20.633  0.00  0.00    +0.248 C 
ATOM     30  O   UNL     1     -37.295  35.470  21.172  0.00  0.00    -0.270 OA
ATOM     31  H   UNL     1     -40.165  36.701  20.642  0.00  0.00    +0.155 HD
BRANCH  14  15
ATOM     15  C   UNL     1     -38.504  35.322  19.202  0.00  0.00    +0.037 A 
ATOM     16  C   UNL     1     -39.456  35.994  18.313  0.00  0.00    +0.013 A 
ATOM     17  C   UNL     1     -39.587  35.571  16.941  0.00  0.00    +0.005 A 
ATOM     18  C   UNL     1     -38.761  34.470  16.449  0.00  0.00    -0.033 A 
ATOM     28  C   UNL     1     -37.822  33.825  17.351  0.00  0.00    +0.005 A 
ATOM     29  C   UNL     1     -37.691  34.236  18.697  0.00  0.00    +0.013 A 
BRANCH  18  19
ATOM     19  C   UNL     1     -38.849  33.939  15.007  0.00  0.00    +0.119 C 
BRANCH  19  20
ATOM     20  N   UNL     1     -40.132  33.296  14.591  0.00  0.00    -0.302 NA
ATOM     21  C   UNL     1     -41.162  34.325  14.116  0.00  0.00    +0.066 C 
ATOM     22  C   UNL     1     -42.490  33.634  13.664  0.00  0.00    -0.064 C 
ATOM     23  N   UNL     1     -43.048  32.804  14.821  0.00  0.00    +0.379 N 
ATOM     24  C   UNL     1     -44.327  32.200  14.419  0.00  0.00    -0.096 C 
ATOM     25  H   UNL     1     -43.254  33.499  15.668  0.00  0.00    -0.082 HD
ATOM     26  C   UNL     1     -42.030  31.780  15.302  0.00  0.00    -0.064 C 
ATOM     27  C   UNL     1     -40.704  32.474  15.720  0.00  0.00    +0.066 C 
ENDBRANCH  19  20
ENDBRANCH  18  19
ENDBRANCH  14  15
ENDBRANCH  12  13
TORSDOF 6
ENDMDL
MODEL 4
REMARK VINA RESULT:      -7.9     59.970     67.771
REMARK  Name = C:\Users\Docking\Desktop\test protocol\1iep_ligandH.pdb
REMARK  8 active torsions:
REMARK  status: ('A' for Active; 'I' for Inactive)
REMARK    1  A    between atoms: _5  and  _11
REMARK    2  A    between atoms: _19  and  _21
REMARK    3  A    between atoms: _22  and  _66
REMARK    4  A    between atoms: _27  and  _30
REMARK    5  A    between atoms: _32  and  _33
REMARK    6  A    between atoms: _38  and  _43
REMARK    7  A    between atoms: _43  and  _46
REMARK    8  A    between atoms: _53  and  _55
REMARK                            x       y       z     vdW  Elec       q    Type
REMARK                         _______ _______ _______ _____ _____    ______ ____
ROOT
ATOM     10  C   UNL     1     -24.245  29.933  86.080  0.00  0.00    +0.038 A 
ATOM     11  C   UNL     1     -22.912  29.587  85.740  0.00  0.00    +0.047 A 
ATOM     12  C   UNL     1     -21.789  30.025  86.555  0.00  0.00    +0.035 A 
ATOM     32  C   UNL     1     -22.061  30.812  87.712  0.00  0.00    +0.024 A 
ATOM     33  C   UNL     1     -23.409  31.175  88.071  0.00  0.00    +0.007 A 
ATOM     34  C   UNL     1     -24.520  30.748  87.270  0.00  0.00    -0.029 A 
ATOM     35  C   UNL     1     -25.944  31.172  87.699  0.00  0.00    +0.045 C 
ENDROOT
BRANCH  10   9
ATOM      4  C   UNL     1     -26.673  29.934  81.940  0.00  0.00    +0.077 A 
ATOM      5  C   UNL     1     -25.813  30.930  81.368  0.00  0.00    +0.048 A 
ATOM      6  C   UNL     1     -24.763  31.421  82.174  0.00  0.00    +0.116 A 
ATOM      7  N   UNL     1     -24.593  30.945  83.456  0.00  0.00    -0.223 NA
ATOM      8  C   UNL     1     -25.441  29.985  83.978  0.00  0.00    +0.220 A 
ATOM      9  N   UNL     1     -25.285  29.486  85.262  0.00  0.00    -0.283 N 
ATOM     36  H   UNL     1     -25.936  28.784  85.613  0.00  0.00    +0.155 HD
ATOM     37  N   UNL     1     -26.453  29.501  83.228  0.00  0.00    -0.214 NA
BRANCH   4   3
ATOM      1  C   UNL     1     -28.812  27.669  79.574  0.00  0.00    +0.020 A 
ATOM      2  C   UNL     1     -27.665  28.232  80.249  0.00  0.00    +0.013 A 
ATOM      3  C   UNL     1     -27.826  29.315  81.212  0.00  0.00    +0.019 A 
ATOM     38  C   UNL     1     -29.170  29.809  81.470  0.00  0.00    +0.120 A 
ATOM     39  N   UNL     1     -30.255  29.248  80.804  0.00  0.00    -0.263 NA
ATOM     40  C   UNL     1     -30.112  28.207  79.874  0.00  0.00    +0.111 A 
ENDBRANCH   4   3
ENDBRANCH  10   9
BRANCH  12  13
ATOM     13  N   UNL     1     -20.415  29.710  86.255  0.00  0.00    -0.281 N 
ATOM     14  C   UNL     1     -19.478  29.112  87.082  0.00  0.00    +0.248 C 
ATOM     30  O   UNL     1     -19.621  28.949  88.285  0.00  0.00    -0.270 OA
ATOM     31  H   UNL     1     -20.093  29.959  85.320  0.00  0.00    +0.155 HD
BRANCH  14  15
ATOM     15  C   UNL     1     -18.189  28.639  86.490  0.00  0.00    +0.037 A 
ATOM     16  C   UNL     1     -18.168  27.798  85.291  0.00  0.00    +0.013 A 
ATOM     17  C   UNL     1     -16.912  27.342  84.750  0.00  0.00    +0.005 A 
ATOM     18  C   UNL     1     -15.666  27.727  85.409  0.00  0.00    -0.033 A 
ATOM     28  C   UNL     1     -15.716  28.567  86.595  0.00  0.00    +0.005 A 
ATOM     29  C   UNL     1     -16.946  29.015  87.128  0.00  0.00    +0.013 A 
BRANCH  18  19
ATOM     19  C   UNL     1     -14.281  27.269  84.915  0.00  0.00    +0.119 C 
BRANCH  19  20
ATOM     20  N   UNL     1     -13.629  26.145  85.651  0.00  0.00    -0.302 NA
ATOM     21  C   UNL     1     -12.347  26.591  86.360  0.00  0.00    +0.066 C 
ATOM     22  C   UNL     1     -11.690  25.408  87.144  0.00  0.00    -0.064 C 
ATOM     23  N   UNL     1     -11.404  24.256  86.179  0.00  0.00    +0.379 N 
ATOM     24  C   UNL     1     -10.734  23.166  86.902  0.00  0.00    -0.096 C 
ATOM     25  H   UNL     1     -10.697  24.633  85.404  0.00  0.00    -0.082 HD
ATOM     26  C   UNL     1     -12.674  23.809  85.469  0.00  0.00    -0.064 C 
ATOM     27  C   UNL     1     -13.334  24.998  84.717  0.00  0.00    +0.066 C 
ENDBRANCH  19  20
ENDBRANCH  18  19
ENDBRANCH  14  15
ENDBRANCH  12  13
TORSDOF 6
ENDMDL
MODEL 5
REMARK VINA RESULT:      -7.8     36.841     39.855
REMARK  Name = C:\Users\Docking\Desktop\test protocol\1iep_ligandH.pdb
REMARK  8 active torsions:
REMARK  status: ('A' for Active; 'I' for Inactive)
REMARK    1  A    between atoms: _5  and  _11
REMARK    2  A    between atoms: _19  and  _21
REMARK    3  A    between atoms: _22  and  _66
REMARK    4  A    between atoms: _27  and  _30
REMARK    5  A    between atoms: _32  and  _33
REMARK    6  A    between atoms: _38  and  _43
REMARK    7  A    between atoms: _43  and  _46
REMARK    8  A    between atoms: _53  and  _55
REMARK                            x       y       z     vdW  Elec       q    Type
REMARK                         _______ _______ _______ _____ _____    ______ ____
ROOT
ATOM     10  C   UNL     1     -31.299   6.926  45.635  0.00  0.00    +0.038 A 
ATOM     11  C   UNL     1     -30.232   7.579  44.967  0.00  0.00    +0.047 A 
ATOM     12  C   UNL     1     -29.455   6.897  43.943  0.00  0.00    +0.035 A 
ATOM     32  C   UNL     1     -29.795   5.551  43.622  0.00  0.00    +0.024 A 
ATOM     33  C   UNL     1     -30.877   4.871  44.292  0.00  0.00    +0.007 A 
ATOM     34  C   UNL     1     -31.644   5.538  45.304  0.00  0.00    -0.029 A 
ATOM     35  C   UNL     1     -32.788   4.758  45.994  0.00  0.00    +0.045 C 
ENDROOT
BRANCH  10   9
ATOM      4  C   UNL     1     -31.931   8.441  50.145  0.00  0.00    +0.077 A 
ATOM      5  C   UNL     1     -30.758   7.754  50.603  0.00  0.00    +0.048 A 
ATOM      6  C   UNL     1     -30.024   7.016  49.648  0.00  0.00    +0.116 A 
ATOM      7  N   UNL     1     -30.441   6.975  48.335  0.00  0.00    -0.223 NA
ATOM      8  C   UNL     1     -31.578   7.648  47.927  0.00  0.00    +0.220 A 
ATOM      9  N   UNL     1     -32.011   7.628  46.610  0.00  0.00    -0.283 N 
ATOM     36  H   UNL     1     -32.859   8.131  46.350  0.00  0.00    +0.155 HD
ATOM     37  N   UNL     1     -32.297   8.359  48.820  0.00  0.00    -0.214 NA
BRANCH   4   3
ATOM      1  C   UNL     1     -33.204  10.743  53.040  0.00  0.00    +0.020 A 
ATOM      2  C   UNL     1     -32.314   9.959  52.216  0.00  0.00    +0.013 A 
ATOM      3  C   UNL     1     -32.810   9.265  51.034  0.00  0.00    +0.019 A 
ATOM     38  C   UNL     1     -34.224   9.387  50.711  0.00  0.00    +0.120 A 
ATOM     39  N   UNL     1     -35.058  10.147  51.525  0.00  0.00    -0.263 NA
ATOM     40  C   UNL     1     -34.592  10.818  52.665  0.00  0.00    +0.111 A 
ENDBRANCH   4   3
ENDBRANCH  10   9
BRANCH  12  13
ATOM     13  N   UNL     1     -28.356   7.506  43.237  0.00  0.00    -0.281 N 
ATOM     14  C   UNL     1     -28.378   8.125  41.998  0.00  0.00    +0.248 C 
ATOM     30  O   UNL     1     -29.309   8.060  41.209  0.00  0.00    -0.270 OA
ATOM     31  H   UNL     1     -27.451   7.478  43.708  0.00  0.00    +0.155 HD
BRANCH  14  15
ATOM     15  C   UNL     1     -27.187   8.920  41.566  0.00  0.00    +0.037 A 
ATOM     16  C   UNL     1     -27.328  10.292  41.072  0.00  0.00    +0.013 A 
ATOM     17  C   UNL     1     -26.166  11.030  40.646  0.00  0.00    +0.005 A 
ATOM     18  C   UNL     1     -24.851  10.397  40.714  0.00  0.00    -0.033 A 
ATOM     28  C   UNL     1     -24.739   9.036  41.214  0.00  0.00    +0.005 A 
ATOM     29  C   UNL     1     -25.877   8.309  41.631  0.00  0.00    +0.013 A 
BRANCH  18  19
ATOM     19  C   UNL     1     -23.558  11.102  40.261  0.00  0.00    +0.119 C 
BRANCH  19  20
ATOM     20  N   UNL     1     -22.304  10.770  41.000  0.00  0.00    -0.302 NA
ATOM     21  C   UNL     1     -22.083  11.695  42.201  0.00  0.00    +0.066 C 
ATOM     22  C   UNL     1     -20.778  11.320  42.976  0.00  0.00    -0.064 C 
ATOM     23  N   UNL     1     -19.586  11.380  42.020  0.00  0.00    +0.379 N 
ATOM     24  C   UNL     1     -18.349  11.085  42.758  0.00  0.00    -0.096 C 
ATOM     25  H   UNL     1     -19.511  12.425  41.639  0.00  0.00    -0.082 HD
ATOM     26  C   UNL     1     -19.798  10.466  40.821  0.00  0.00    -0.064 C 
ATOM     27  C   UNL     1     -21.112  10.828  40.076  0.00  0.00    +0.066 C 
ENDBRANCH  19  20
ENDBRANCH  18  19
ENDBRANCH  14  15
ENDBRANCH  12  13
TORSDOF 6
ENDMDL
