MODEL 1
REMARK VINA RESULT:      -9.1      0.000      0.000
REMARK  Name = C:\Users\Docking\Desktop\test protocol\1iep_ligandH.pdb
REMARK  8 active torsions:
REMARK  status: ('A' for Active; 'I' for Inactive)
REMARK    1  A    between atoms: _5  and  _11
REMARK    2  A    between atoms: _19  and  _21
REMARK    3  A    between atoms: _22  and  _66
REMARK    4  A    between atoms: _27  and  _30
REMARK    5  A    between atoms: _32  and  _33
REMARK    6  A    between atoms: _38  and  _43
REMARK    7  A    between atoms: _43  and  _46
REMARK    8  A    between atoms: _53  and  _55
REMARK                            x       y       z     vdW  Elec       q    Type
REMARK                         _______ _______ _______ _____ _____    ______ ____
ROOT
ATOM     10  C   UNL     1       5.542  50.725  62.667  0.00  0.00    +0.038 A 
ATOM     11  C   UNL     1       6.212  50.198  63.801  0.00  0.00    +0.047 A 
ATOM     12  C   UNL     1       7.055  49.017  63.696  0.00  0.00    +0.035 A 
ATOM     32  C   UNL     1       7.196  48.399  62.419  0.00  0.00    +0.024 A 
ATOM     33  C   UNL     1       6.522  48.921  61.256  0.00  0.00    +0.007 A 
ATOM     34  C   UNL     1       5.687  50.084  61.354  0.00  0.00    -0.029 A 
ATOM     35  C   UNL     1       4.983  50.595  60.076  0.00  0.00    +0.045 C 
ENDROOT
BRANCH  10   9
ATOM      4  C   UNL     1       4.887  55.479  62.595  0.00  0.00    +0.077 A 
ATOM      5  C   UNL     1       6.255  55.721  62.238  0.00  0.00    +0.048 A 
ATOM      6  C   UNL     1       7.097  54.596  62.089  0.00  0.00    +0.116 A 
ATOM      7  N   UNL     1       6.596  53.327  62.285  0.00  0.00    -0.223 NA
ATOM      8  C   UNL     1       5.272  53.128  62.631  0.00  0.00    +0.220 A 
ATOM      9  N   UNL     1       4.745  51.861  62.825  0.00  0.00    -0.283 N 
ATOM     36  H   UNL     1       3.765  51.757  63.087  0.00  0.00    +0.155 HD
ATOM     37  N   UNL     1       4.449  54.187  62.780  0.00  0.00    -0.214 NA
BRANCH   4   3
ATOM      1  C   UNL     1       1.516  57.385  63.148  0.00  0.00    +0.020 A 
ATOM      2  C   UNL     1       2.453  56.299  62.968  0.00  0.00    +0.013 A 
ATOM      3  C   UNL     1       3.874  56.565  62.785  0.00  0.00    +0.019 A 
ATOM     38  C   UNL     1       4.319  57.950  62.791  0.00  0.00    +0.120 A 
ATOM     39  N   UNL     1       3.394  58.975  62.965  0.00  0.00    -0.263 NA
ATOM     40  C   UNL     1       2.023  58.732  63.140  0.00  0.00    +0.111 A 
ENDBRANCH   4   3
ENDBRANCH  10   9
BRANCH  12  13
ATOM     13  N   UNL     1       7.753  48.432  64.814  0.00  0.00    -0.281 N 
ATOM     14  C   UNL     1       8.668  49.039  65.658  0.00  0.00    +0.248 C 
ATOM     30  O   UNL     1       9.189  50.124  65.447  0.00  0.00    -0.270 OA
ATOM     31  H   UNL     1       7.547  47.452  65.006  0.00  0.00    +0.155 HD
BRANCH  14  15
ATOM     15  C   UNL     1       9.075  48.331  66.910  0.00  0.00    +0.037 A 
ATOM     16  C   UNL     1       8.175  47.386  67.575  0.00  0.00    +0.013 A 
ATOM     17  C   UNL     1       8.585  46.730  68.791  0.00  0.00    +0.005 A 
ATOM     18  C   UNL     1       9.905  47.017  69.350  0.00  0.00    -0.033 A 
ATOM     28  C   UNL     1      10.779  47.955  68.667  0.00  0.00    +0.005 A 
ATOM     29  C   UNL     1      10.380  48.601  67.475  0.00  0.00    +0.013 A 
BRANCH  18  19
ATOM     19  C   UNL     1      10.417  46.379  70.655  0.00  0.00    +0.119 C 
BRANCH  19  20
ATOM     20  N   UNL     1      11.499  45.357  70.537  0.00  0.00    -0.302 NA
ATOM     21  C   UNL     1      11.114  44.219  69.586  0.00  0.00    +0.066 C 
ATOM     22  C   UNL     1      12.266  43.170  69.457  0.00  0.00    -0.064 C 
ATOM     23  N   UNL     1      12.612  42.624  70.844  0.00  0.00    +0.379 N 
ATOM     24  C   UNL     1      13.655  41.595  70.719  0.00  0.00    -0.096 C 
ATOM     25  H   UNL     1      11.699  42.132  71.251  0.00  0.00    -0.082 HD
ATOM     26  C   UNL     1      12.994  43.749  71.796  0.00  0.00    -0.064 C 
ATOM     27  C   UNL     1      11.854  44.801  71.894  0.00  0.00    +0.066 C 
ENDBRANCH  19  20
ENDBRANCH  18  19
ENDBRANCH  14  15
ENDBRANCH  12  13
TORSDOF 6
ENDMDL
MODEL 2
REMARK VINA RESULT:      -9.0     10.603     15.095
REMARK  Name = C:\Users\Docking\Desktop\test protocol\1iep_ligandH.pdb
REMARK  8 active torsions:
REMARK  status: ('A' for Active; 'I' for Inactive)
REMARK    1  A    between atoms: _5  and  _11
REMARK    2  A    between atoms: _19  and  _21
REMARK    3  A    between atoms: _22  and  _66
REMARK    4  A    between atoms: _27  and  _30
REMARK    5  A    between atoms: _32  and  _33
REMARK    6  A    between atoms: _38  and  _43
REMARK    7  A    between atoms: _43  and  _46
REMARK    8  A    between atoms: _53  and  _55
REMARK                            x       y       z     vdW  Elec       q    Type
REMARK                         _______ _______ _______ _____ _____    ______ ____
ROOT
ATOM     10  C   UNL     1      13.507  42.096  72.365  0.00  0.00    +0.038 A 
ATOM     11  C   UNL     1      14.610  41.855  73.223  0.00  0.00    +0.047 A 
ATOM     12  C   UNL     1      15.729  41.028  72.796  0.00  0.00    +0.035 A 
ATOM     32  C   UNL     1      15.692  40.465  71.487  0.00  0.00    +0.024 A 
ATOM     33  C   UNL     1      14.578  40.700  70.603  0.00  0.00    +0.007 A 
ATOM     34  C   UNL     1      13.471  41.512  71.019  0.00  0.00    -0.029 A 
ATOM     35  C   UNL     1      12.300  41.724  70.031  0.00  0.00    +0.045 C 
ENDROOT
BRANCH  10   9
ATOM      4  C   UNL     1      11.462  46.374  73.108  0.00  0.00    +0.077 A 
ATOM      5  C   UNL     1      12.586  47.074  72.556  0.00  0.00    +0.048 A 
ATOM      6  C   UNL     1      13.673  46.296  72.098  0.00  0.00    +0.116 A 
ATOM      7  N   UNL     1      13.628  44.922  72.190  0.00  0.00    -0.223 NA
ATOM      8  C   UNL     1      12.530  44.279  72.731  0.00  0.00    +0.220 A 
ATOM      9  N   UNL     1      12.460  42.897  72.826  0.00  0.00    -0.283 N 
ATOM     36  H   UNL     1      11.635  42.461  73.238  0.00  0.00    +0.155 HD
ATOM     37  N   UNL     1      11.480  44.999  73.176  0.00  0.00    -0.214 NA
BRANCH   4   3
ATOM      1  C   UNL     1       8.000  48.182  73.322  0.00  0.00    +0.020 A 
ATOM      2  C   UNL     1       9.163  47.530  72.766  0.00  0.00    +0.013 A 
ATOM      3  C   UNL     1      10.236  47.056  73.632  0.00  0.00    +0.019 A 
ATOM     38  C   UNL     1      10.100  47.258  75.066  0.00  0.00    +0.120 A 
ATOM     39  N   UNL     1       8.968  47.890  75.573  0.00  0.00    -0.263 NA
ATOM     40  C   UNL     1       7.930  48.352  74.750  0.00  0.00    +0.111 A 
ENDBRANCH   4   3
ENDBRANCH  10   9
BRANCH  12  13
ATOM     13  N   UNL     1      16.872  40.742  73.627  0.00  0.00    -0.281 N 
ATOM     14  C   UNL     1      18.210  40.953  73.336  0.00  0.00    +0.248 C 
ATOM     30  O   UNL     1      18.642  41.225  72.226  0.00  0.00    -0.270 OA
ATOM     31  H   UNL     1      16.671  40.333  74.540  0.00  0.00    +0.155 HD
BRANCH  14  15
ATOM     15  C   UNL     1      19.216  40.830  74.435  0.00  0.00    +0.037 A 
ATOM     16  C   UNL     1      20.622  41.183  74.222  0.00  0.00    +0.013 A 
ATOM     17  C   UNL     1      21.574  41.039  75.294  0.00  0.00    +0.005 A 
ATOM     18  C   UNL     1      21.123  40.540  76.591  0.00  0.00    -0.033 A 
ATOM     28  C   UNL     1      19.722  40.202  76.776  0.00  0.00    +0.005 A 
ATOM     29  C   UNL     1      18.785  40.341  75.728  0.00  0.00    +0.013 A 
BRANCH  18  19
ATOM     19  C   UNL     1      22.074  40.335  77.785  0.00  0.00    +0.119 C 
BRANCH  19  20
ATOM     20  N   UNL     1      21.790  41.114  79.027  0.00  0.00    -0.302 NA
ATOM     21  C   UNL     1      22.824  42.219  79.260  0.00  0.00    +0.066 C 
ATOM     22  C   UNL     1      22.499  43.039  80.551  0.00  0.00    -0.064 C 
ATOM     23  N   UNL     1      22.439  42.092  81.751  0.00  0.00    +0.379 N 
ATOM     24  C   UNL     1      22.191  42.867  82.975  0.00  0.00    -0.096 C 
ATOM     25  H   UNL     1      23.439  41.610  81.852  0.00  0.00    -0.082 HD
ATOM     26  C   UNL     1      21.415  40.988  81.526  0.00  0.00    -0.064 C 
ATOM     27  C   UNL     1      21.731  40.199  80.225  0.00  0.00    +0.066 C 
ENDBRANCH  19  20
ENDBRANCH  18  19
ENDBRANCH  14  15
ENDBRANCH  12  13
TORSDOF 6
ENDMDL
MODEL 3
REMARK VINA RESULT:      -8.7      2.963     13.984
REMARK  Name = C:\Users\Docking\Desktop\test protocol\1iep_ligandH.pdb
REMARK  8 active torsions:
REMARK  status: ('A' for Active; 'I' for Inactive)
REMARK    1  A    between atoms: _5  and  _11
REMARK    2  A    between atoms: _19  and  _21
REMARK    3  A    between atoms: _22  and  _66
REMARK    4  A    between atoms: _27  and  _30
REMARK    5  A    between atoms: _32  and  _33
REMARK    6  A    between atoms: _38  and  _43
REMARK    7  A    between atoms: _43  and  _46
REMARK    8  A    between atoms: _53  and  _55
REMARK                            x       y       z     vdW  Elec       q    Type
REMARK                         _______ _______ _______ _____ _____    ______ ____
ROOT
ATOM     10  C   UNL     1      10.724  42.836  68.493  0.00  0.00    +0.038 A 
ATOM     11  C   UNL     1      10.329  44.075  67.925  0.00  0.00    +0.047 A 
ATOM     12  C   UNL     1       8.931  44.362  67.643  0.00  0.00    +0.035 A 
ATOM     32  C   UNL     1       7.961  43.366  67.954  0.00  0.00    +0.024 A 
ATOM     33  C   UNL     1       8.344  42.101  68.530  0.00  0.00    +0.007 A 
ATOM     34  C   UNL     1       9.722  41.811  68.808  0.00  0.00    -0.029 A 
ATOM     35  C   UNL     1      10.076  40.436  69.421  0.00  0.00    +0.045 C 
ENDROOT
BRANCH  10   9
ATOM      4  C   UNL     1      14.608  43.099  71.299  0.00  0.00    +0.077 A 
ATOM      5  C   UNL     1      13.881  43.760  72.345  0.00  0.00    +0.048 A 
ATOM      6  C   UNL     1      12.511  44.020  72.118  0.00  0.00    +0.116 A 
ATOM      7  N   UNL     1      11.922  43.643  70.930  0.00  0.00    -0.223 NA
ATOM      8  C   UNL     1      12.653  43.009  69.942  0.00  0.00    +0.220 A 
ATOM      9  N   UNL     1      12.079  42.614  68.743  0.00  0.00    -0.283 N 
ATOM     36  H   UNL     1      12.654  42.155  68.036  0.00  0.00    +0.155 HD
ATOM     37  N   UNL     1      13.963  42.750  70.134  0.00  0.00    -0.214 NA
BRANCH   4   3
ATOM      1  C   UNL     1      18.453  42.911  70.602  0.00  0.00    +0.020 A 
ATOM      2  C   UNL     1      17.061  43.277  70.469  0.00  0.00    +0.013 A 
ATOM      3  C   UNL     1      16.062  42.752  71.391  0.00  0.00    +0.019 A 
ATOM     38  C   UNL     1      16.507  41.853  72.445  0.00  0.00    +0.120 A 
ATOM     39  N   UNL     1      17.853  41.517  72.547  0.00  0.00    -0.263 NA
ATOM     40  C   UNL     1      18.824  42.014  71.665  0.00  0.00    +0.111 A 
ENDBRANCH   4   3
ENDBRANCH  10   9
BRANCH  12  13
ATOM     13  N   UNL     1       8.472  45.598  67.060  0.00  0.00    -0.281 N 
ATOM     14  C   UNL     1       8.263  46.813  67.693  0.00  0.00    +0.248 C 
ATOM     30  O   UNL     1       8.236  46.964  68.905  0.00  0.00    -0.270 OA
ATOM     31  H   UNL     1       8.278  45.576  66.059  0.00  0.00    +0.155 HD
BRANCH  14  15
ATOM     15  C   UNL     1       8.038  48.032  66.859  0.00  0.00    +0.037 A 
ATOM     16  C   UNL     1       6.685  48.491  66.534  0.00  0.00    +0.013 A 
ATOM     17  C   UNL     1       6.496  49.661  65.713  0.00  0.00    +0.005 A 
ATOM     18  C   UNL     1       7.665  50.382  65.214  0.00  0.00    -0.033 A 
ATOM     28  C   UNL     1       8.995  49.908  65.556  0.00  0.00    +0.005 A 
ATOM     29  C   UNL     1       9.184  48.761  66.359  0.00  0.00    +0.013 A 
BRANCH  18  19
ATOM     19  C   UNL     1       7.558  51.628  64.315  0.00  0.00    +0.119 C 
BRANCH  19  20
ATOM     20  N   UNL     1       6.420  51.678  63.348  0.00  0.00    -0.302 NA
ATOM     21  C   UNL     1       6.568  50.638  62.233  0.00  0.00    +0.066 C 
ATOM     22  C   UNL     1       5.359  50.689  61.243  0.00  0.00    -0.064 C 
ATOM     23  N   UNL     1       5.241  52.098  60.659  0.00  0.00    +0.379 N 
ATOM     24  C   UNL     1       4.141  52.133  59.684  0.00  0.00    -0.096 C 
ATOM     25  H   UNL     1       6.186  52.316  60.110  0.00  0.00    -0.082 HD
ATOM     26  C   UNL     1       5.096  53.138  61.760  0.00  0.00    -0.064 C 
ATOM     27  C   UNL     1       6.288  53.059  62.755  0.00  0.00    +0.066 C 
ENDBRANCH  19  20
ENDBRANCH  18  19
ENDBRANCH  14  15
ENDBRANCH  12  13
TORSDOF 6
ENDMDL
MODEL 4
REMARK VINA RESULT:      -8.3      5.168      7.771
REMARK  Name = C:\Users\Docking\Desktop\test protocol\1iep_ligandH.pdb
REMARK  8 active torsions:
REMARK  status: ('A' for Active; 'I' for Inactive)
REMARK    1  A    between atoms: _5  and  _11
REMARK    2  A    between atoms: _19  and  _21
REMARK    3  A    between atoms: _22  and  _66
REMARK    4  A    between atoms: _27  and  _30
REMARK    5  A    between atoms: _32  and  _33
REMARK    6  A    between atoms: _38  and  _43
REMARK    7  A    between atoms: _43  and  _46
REMARK    8  A    between atoms: _53  and  _55
REMARK                            x       y       z     vdW  Elec       q    Type
REMARK                         _______ _______ _______ _____ _____    ______ ____
ROOT
ATOM     10  C   UNL     1       7.924  47.394  64.477  0.00  0.00    +0.038 A 
ATOM     11  C   UNL     1       8.658  46.488  65.285  0.00  0.00    +0.047 A 
ATOM     12  C   UNL     1       8.613  46.568  66.737  0.00  0.00    +0.035 A 
ATOM     32  C   UNL     1       7.808  47.582  67.333  0.00  0.00    +0.024 A 
ATOM     33  C   UNL     1       7.057  48.512  66.527  0.00  0.00    +0.007 A 
ATOM     34  C   UNL     1       7.099  48.439  65.095  0.00  0.00    -0.029 A 
ATOM     35  C   UNL     1       6.278  49.467  64.281  0.00  0.00    +0.045 C 
ENDROOT
BRANCH  10   9
ATOM      4  C   UNL     1      10.345  47.626  60.340  0.00  0.00    +0.077 A 
ATOM      5  C   UNL     1      11.546  48.053  60.998  0.00  0.00    +0.048 A 
ATOM      6  C   UNL     1      11.497  48.208  62.402  0.00  0.00    +0.116 A 
ATOM      7  N   UNL     1      10.328  47.952  63.086  0.00  0.00    -0.223 NA
ATOM      8  C   UNL     1       9.188  47.543  62.420  0.00  0.00    +0.220 A 
ATOM      9  N   UNL     1       8.004  47.271  63.088  0.00  0.00    -0.283 N 
ATOM     36  H   UNL     1       7.182  46.979  62.560  0.00  0.00    +0.155 HD
ATOM     37  N   UNL     1       9.208  47.389  61.080  0.00  0.00    -0.214 NA
BRANCH   4   3
ATOM      1  C   UNL     1      10.510  46.017  56.778  0.00  0.00    +0.020 A 
ATOM      2  C   UNL     1      10.633  46.171  58.210  0.00  0.00    +0.013 A 
ATOM      3  C   UNL     1      10.240  47.414  58.861  0.00  0.00    +0.019 A 
ATOM     38  C   UNL     1       9.723  48.490  58.030  0.00  0.00    +0.120 A 
ATOM     39  N   UNL     1       9.618  48.314  56.654  0.00  0.00    -0.263 NA
ATOM     40  C   UNL     1       9.994  47.123  56.015  0.00  0.00    +0.111 A 
ENDBRANCH   4   3
ENDBRANCH  10   9
BRANCH  12  13
ATOM     13  N   UNL     1       9.342  45.681  67.608  0.00  0.00    -0.281 N 
ATOM     14  C   UNL     1       9.167  44.317  67.776  0.00  0.00    +0.248 C 
ATOM     30  O   UNL     1       8.208  43.687  67.356  0.00  0.00    -0.270 OA
ATOM     31  H   UNL     1      10.078  46.110  68.170  0.00  0.00    +0.155 HD
BRANCH  14  15
ATOM     15  C   UNL     1      10.199  43.543  68.531  0.00  0.00    +0.037 A 
ATOM     16  C   UNL     1      11.354  44.209  69.139  0.00  0.00    +0.013 A 
ATOM     17  C   UNL     1      12.344  43.438  69.848  0.00  0.00    +0.005 A 
ATOM     18  C   UNL     1      12.182  41.989  69.953  0.00  0.00    -0.033 A 
ATOM     28  C   UNL     1      11.024  41.355  69.345  0.00  0.00    +0.005 A 
ATOM     29  C   UNL     1      10.052  42.108  68.649  0.00  0.00    +0.013 A 
BRANCH  18  19
ATOM     19  C   UNL     1      13.200  41.084  70.672  0.00  0.00    +0.119 C 
BRANCH  19  20
ATOM     20  N   UNL     1      14.289  41.757  71.442  0.00  0.00    -0.302 NA
ATOM     21  C   UNL     1      15.631  41.036  71.287  0.00  0.00    +0.066 C 
ATOM     22  C   UNL     1      16.763  41.766  72.080  0.00  0.00    -0.064 C 
ATOM     23  N   UNL     1      16.368  41.863  73.554  0.00  0.00    +0.379 N 
ATOM     24  C   UNL     1      17.457  42.497  74.313  0.00  0.00    -0.096 C 
ATOM     25  H   UNL     1      16.246  40.824  73.941  0.00  0.00    -0.082 HD
ATOM     26  C   UNL     1      15.033  42.576  73.718  0.00  0.00    -0.064 C 
ATOM     27  C   UNL     1      13.921  41.860  72.902  0.00  0.00    +0.066 C 
ENDBRANCH  19  20
ENDBRANCH  18  19
ENDBRANCH  14  15
ENDBRANCH  12  13
TORSDOF 6
ENDMDL
MODEL 5
REMARK VINA RESULT:      -8.3      6.648     17.883
REMARK  Name = C:\Users\Docking\Desktop\test protocol\1iep_ligandH.pdb
REMARK  8 active torsions:
REMARK  status: ('A' for Active; 'I' for Inactive)
REMARK    1  A    between atoms: _5  and  _11
REMARK    2  A    between atoms: _19  and  _21
REMARK    3  A    between atoms: _22  and  _66
REMARK    4  A    between atoms: _27  and  _30
REMARK    5  A    between atoms: _32  and  _33
REMARK    6  A    between atoms: _38  and  _43
REMARK    7  A    between atoms: _43  and  _46
REMARK    8  A    between atoms: _53  and  _55
REMARK                            x       y       z     vdW  Elec       q    Type
REMARK                         _______ _______ _______ _____ _____    ______ ____
ROOT
ATOM     10  C   UNL     1      18.481  40.820  72.715  0.00  0.00    +0.038 A 
ATOM     11  C   UNL     1      17.261  41.117  72.056  0.00  0.00    +0.047 A 
ATOM     12  C   UNL     1      16.226  41.905  72.707  0.00  0.00    +0.035 A 
ATOM     32  C   UNL     1      16.469  42.377  74.030  0.00  0.00    +0.024 A 
ATOM     33  C   UNL     1      17.703  42.083  74.716  0.00  0.00    +0.007 A 
ATOM     34  C   UNL     1      18.726  41.304  74.079  0.00  0.00    -0.029 A 
ATOM     35  C   UNL     1      20.027  41.015  74.864  0.00  0.00    +0.045 C 
ENDROOT
BRANCH  10   9
ATOM      4  C   UNL     1      22.377  40.413  69.941  0.00  0.00    +0.077 A 
ATOM      5  C   UNL     1      22.496  41.836  69.799  0.00  0.00    +0.048 A 
ATOM      6  C   UNL     1      21.531  42.636  70.449  0.00  0.00    +0.116 A 
ATOM      7  N   UNL     1      20.525  42.048  71.185  0.00  0.00    -0.223 NA
ATOM      8  C   UNL     1      20.438  40.673  71.301  0.00  0.00    +0.220 A 
ATOM      9  N   UNL     1      19.440  40.060  72.042  0.00  0.00    -0.283 N 
ATOM     36  H   UNL     1      19.406  39.042  72.097  0.00  0.00    +0.155 HD
ATOM     37  N   UNL     1      21.347  39.886  70.688  0.00  0.00    -0.214 NA
BRANCH   4   3
ATOM      1  C   UNL     1      24.254  37.110  69.010  0.00  0.00    +0.020 A 
ATOM      2  C   UNL     1      23.320  38.014  69.642  0.00  0.00    +0.013 A 
ATOM      3  C   UNL     1      23.322  39.434  69.317  0.00  0.00    +0.019 A 
ATOM     38  C   UNL     1      24.289  39.913  68.340  0.00  0.00    +0.120 A 
ATOM     39  N   UNL     1      25.177  39.020  67.749  0.00  0.00    -0.263 NA
ATOM     40  C   UNL     1      25.186  37.651  68.055  0.00  0.00    +0.111 A 
ENDBRANCH   4   3
ENDBRANCH  10   9
BRANCH  12  13
ATOM     13  N   UNL     1      14.964  42.232  72.091  0.00  0.00    -0.281 N 
ATOM     14  C   UNL     1      14.621  43.392  71.416  0.00  0.00    +0.248 C 
ATOM     30  O   UNL     1      15.284  44.419  71.425  0.00  0.00    -0.270 OA
ATOM     31  H   UNL     1      14.235  41.522  72.161  0.00  0.00    +0.155 HD
BRANCH  14  15
ATOM     15  C   UNL     1      13.351  43.421  70.629  0.00  0.00    +0.037 A 
ATOM     16  C   UNL     1      12.785  42.198  70.054  0.00  0.00    +0.013 A 
ATOM     17  C   UNL     1      11.568  42.256  69.285  0.00  0.00    +0.005 A 
ATOM     18  C   UNL     1      10.906  43.543  69.087  0.00  0.00    -0.033 A 
ATOM     28  C   UNL     1      11.486  44.741  69.673  0.00  0.00    +0.005 A 
ATOM     29  C   UNL     1      12.680  44.687  70.427  0.00  0.00    +0.013 A 
BRANCH  18  19
ATOM     19  C   UNL     1       9.615  43.703  68.263  0.00  0.00    +0.119 C 
BRANCH  19  20
ATOM     20  N   UNL     1       9.382  45.023  67.606  0.00  0.00    -0.302 NA
ATOM     21  C   UNL     1       8.160  45.744  68.182  0.00  0.00    +0.066 C 
ATOM     22  C   UNL     1       7.944  47.133  67.498  0.00  0.00    -0.064 C 
ATOM     23  N   UNL     1       7.796  46.938  65.988  0.00  0.00    +0.379 N 
ATOM     24  C   UNL     1       7.535  48.236  65.349  0.00  0.00    -0.096 C 
ATOM     25  H   UNL     1       6.904  46.291  65.817  0.00  0.00    -0.082 HD
ATOM     26  C   UNL     1       9.006  46.220  65.408  0.00  0.00    -0.064 C 
ATOM     27  C   UNL     1       9.229  44.853  66.114  0.00  0.00    +0.066 C 
ENDBRANCH  19  20
ENDBRANCH  18  19
ENDBRANCH  14  15
ENDBRANCH  12  13
TORSDOF 6
ENDMDL
