MODEL 1
REMARK VINA RESULT:      -9.9      0.000      0.000
REMARK  Name = C:\Users\Docking\Desktop\test protocol\1iep_ligandH.pdb
REMARK  8 active torsions:
REMARK  status: ('A' for Active; 'I' for Inactive)
REMARK    1  A    between atoms: _5  and  _11
REMARK    2  A    between atoms: _19  and  _21
REMARK    3  A    between atoms: _22  and  _66
REMARK    4  A    between atoms: _27  and  _30
REMARK    5  A    between atoms: _32  and  _33
REMARK    6  A    between atoms: _38  and  _43
REMARK    7  A    between atoms: _43  and  _46
REMARK    8  A    between atoms: _53  and  _55
REMARK                            x       y       z     vdW  Elec       q    Type
REMARK                         _______ _______ _______ _____ _____    ______ ____
ROOT
ATOM     10  C   UNL     1     -41.877 -34.850  25.809  0.00  0.00    +0.038 A 
ATOM     11  C   UNL     1     -43.230 -34.752  26.223  0.00  0.00    +0.047 A 
ATOM     12  C   UNL     1     -44.321 -35.054  25.309  0.00  0.00    +0.035 A 
ATOM     32  C   UNL     1     -43.997 -35.457  23.980  0.00  0.00    +0.024 A 
ATOM     33  C   UNL     1     -42.627 -35.560  23.542  0.00  0.00    +0.007 A 
ATOM     34  C   UNL     1     -41.547 -35.261  24.439  0.00  0.00    -0.029 A 
ATOM     35  C   UNL     1     -40.098 -35.383  23.913  0.00  0.00    +0.045 C 
ENDROOT
BRANCH  10   9
ATOM      4  C   UNL     1     -38.958 -31.748  28.020  0.00  0.00    +0.077 A 
ATOM      5  C   UNL     1     -39.463 -30.640  27.262  0.00  0.00    +0.048 A 
ATOM      6  C   UNL     1     -40.469 -30.912  26.307  0.00  0.00    +0.116 A 
ATOM      7  N   UNL     1     -40.928 -32.200  26.133  0.00  0.00    -0.223 NA
ATOM      8  C   UNL     1     -40.418 -33.246  26.880  0.00  0.00    +0.220 A 
ATOM      9  N   UNL     1     -40.870 -34.547  26.728  0.00  0.00    -0.283 N 
ATOM     36  H   UNL     1     -40.463 -35.292  27.293  0.00  0.00    +0.155 HD
ATOM     37  N   UNL     1     -39.456 -33.012  27.797  0.00  0.00    -0.214 NA
BRANCH   4   3
ATOM      1  C   UNL     1     -36.409 -32.569  30.871  0.00  0.00    +0.020 A 
ATOM      2  C   UNL     1     -37.437 -32.746  29.872  0.00  0.00    +0.013 A 
ATOM      3  C   UNL     1     -37.896 -31.620  29.068  0.00  0.00    +0.019 A 
ATOM     38  C   UNL     1     -37.288 -30.319  29.301  0.00  0.00    +0.120 A 
ATOM     39  N   UNL     1     -36.300 -30.179  30.271  0.00  0.00    -0.263 NA
ATOM     40  C   UNL     1     -35.852 -31.255  31.052  0.00  0.00    +0.111 A 
ENDBRANCH   4   3
ENDBRANCH  10   9
BRANCH  12  13
ATOM     13  N   UNL     1     -45.714 -34.965  25.671  0.00  0.00    -0.281 N 
ATOM     14  C   UNL     1     -46.509 -33.832  25.724  0.00  0.00    +0.248 C 
ATOM     30  O   UNL     1     -46.084 -32.687  25.674  0.00  0.00    -0.270 OA
ATOM     31  H   UNL     1     -46.169 -35.844  25.917  0.00  0.00    +0.155 HD
BRANCH  14  15
ATOM     15  C   UNL     1     -47.988 -33.993  25.867  0.00  0.00    +0.037 A 
ATOM     16  C   UNL     1     -48.919 -33.035  25.266  0.00  0.00    +0.013 A 
ATOM     17  C   UNL     1     -50.340 -33.205  25.434  0.00  0.00    +0.005 A 
ATOM     18  C   UNL     1     -50.839 -34.340  26.206  0.00  0.00    -0.033 A 
ATOM     28  C   UNL     1     -49.894 -35.278  26.787  0.00  0.00    +0.005 A 
ATOM     29  C   UNL     1     -48.500 -35.115  26.626  0.00  0.00    +0.013 A 
BRANCH  18  19
ATOM     19  C   UNL     1     -52.339 -34.588  26.455  0.00  0.00    +0.119 C 
BRANCH  19  20
ATOM     20  N   UNL     1     -52.722 -35.885  27.088  0.00  0.00    -0.302 NA
ATOM     21  C   UNL     1     -53.537 -36.769  26.139  0.00  0.00    +0.066 C 
ATOM     22  C   UNL     1     -53.909 -38.131  26.810  0.00  0.00    -0.064 C 
ATOM     23  N   UNL     1     -54.685 -37.865  28.102  0.00  0.00    +0.379 N 
ATOM     24  C   UNL     1     -55.087 -39.144  28.704  0.00  0.00    -0.096 C 
ATOM     25  H   UNL     1     -55.614 -37.312  27.830  0.00  0.00    -0.082 HD
ATOM     26  C   UNL     1     -53.883 -36.984  29.050  0.00  0.00    -0.064 C 
ATOM     27  C   UNL     1     -53.492 -35.646  28.363  0.00  0.00    +0.066 C 
ENDBRANCH  19  20
ENDBRANCH  18  19
ENDBRANCH  14  15
ENDBRANCH  12  13
TORSDOF 6
ENDMDL
MODEL 2
REMARK VINA RESULT:      -9.8      3.132     13.891
REMARK  Name = C:\Users\Docking\Desktop\test protocol\1iep_ligandH.pdb
REMARK  8 active torsions:
REMARK  status: ('A' for Active; 'I' for Inactive)
REMARK    1  A    between atoms: _5  and  _11
REMARK    2  A    between atoms: _19  and  _21
REMARK    3  A    between atoms: _22  and  _66
REMARK    4  A    between atoms: _27  and  _30
REMARK    5  A    between atoms: _32  and  _33
REMARK    6  A    between atoms: _38  and  _43
REMARK    7  A    between atoms: _43  and  _46
REMARK    8  A    between atoms: _53  and  _55
REMARK                            x       y       z     vdW  Elec       q    Type
REMARK                         _______ _______ _______ _____ _____    ______ ____
ROOT
ATOM     10  C   UNL     1     -40.962 -34.609  25.839  0.00  0.00    +0.038 A 
ATOM     11  C   UNL     1     -40.173 -33.981  26.837  0.00  0.00    +0.047 A 
ATOM     12  C   UNL     1     -38.756 -33.730  26.629  0.00  0.00    +0.035 A 
ATOM     32  C   UNL     1     -38.174 -34.128  25.390  0.00  0.00    +0.024 A 
ATOM     33  C   UNL     1     -38.960 -34.768  24.365  0.00  0.00    +0.007 A 
ATOM     34  C   UNL     1     -40.358 -35.021  24.566  0.00  0.00    -0.029 A 
ATOM     35  C   UNL     1     -41.151 -35.717  23.434  0.00  0.00    +0.045 C 
ENDROOT
BRANCH  10   9
ATOM      4  C   UNL     1     -45.594 -33.438  25.379  0.00  0.00    +0.077 A 
ATOM      5  C   UNL     1     -45.284 -32.280  24.590  0.00  0.00    +0.048 A 
ATOM      6  C   UNL     1     -43.920 -32.017  24.332  0.00  0.00    +0.116 A 
ATOM      7  N   UNL     1     -42.947 -32.857  24.829  0.00  0.00    -0.223 NA
ATOM      8  C   UNL     1     -43.280 -33.964  25.588  0.00  0.00    +0.220 A 
ATOM      9  N   UNL     1     -42.318 -34.826  26.092  0.00  0.00    -0.283 N 
ATOM     36  H   UNL     1     -42.604 -35.628  26.653  0.00  0.00    +0.155 HD
ATOM     37  N   UNL     1     -44.575 -34.236  25.850  0.00  0.00    -0.214 NA
BRANCH   4   3
ATOM      1  C   UNL     1     -48.663 -35.471  26.700  0.00  0.00    +0.020 A 
ATOM      2  C   UNL     1     -47.299 -35.122  26.376  0.00  0.00    +0.013 A 
ATOM      3  C   UNL     1     -46.988 -33.850  25.735  0.00  0.00    +0.019 A 
ATOM     38  C   UNL     1     -48.089 -32.948  25.433  0.00  0.00    +0.120 A 
ATOM     39  N   UNL     1     -49.393 -33.312  25.754  0.00  0.00    -0.263 NA
ATOM     40  C   UNL     1     -49.704 -34.534  26.370  0.00  0.00    +0.111 A 
ENDBRANCH   4   3
ENDBRANCH  10   9
BRANCH  12  13
ATOM     13  N   UNL     1     -37.904 -33.104  27.609  0.00  0.00    -0.281 N 
ATOM     14  C   UNL     1     -38.080 -31.879  28.233  0.00  0.00    +0.248 C 
ATOM     30  O   UNL     1     -38.891 -31.035  27.882  0.00  0.00    -0.270 OA
ATOM     31  H   UNL     1     -37.070 -33.627  27.876  0.00  0.00    +0.155 HD
BRANCH  14  15
ATOM     15  C   UNL     1     -37.220 -31.537  29.407  0.00  0.00    +0.037 A 
ATOM     16  C   UNL     1     -36.845 -32.551  30.395  0.00  0.00    +0.013 A 
ATOM     17  C   UNL     1     -36.029 -32.190  31.527  0.00  0.00    +0.005 A 
ATOM     18  C   UNL     1     -35.581 -30.807  31.676  0.00  0.00    -0.033 A 
ATOM     28  C   UNL     1     -35.964 -29.823  30.678  0.00  0.00    +0.005 A 
ATOM     29  C   UNL     1     -36.765 -30.172  29.567  0.00  0.00    +0.013 A 
BRANCH  18  19
ATOM     19  C   UNL     1     -34.726 -30.328  32.864  0.00  0.00    +0.119 C 
BRANCH  19  20
ATOM     20  N   UNL     1     -33.359 -29.811  32.557  0.00  0.00    -0.302 NA
ATOM     21  C   UNL     1     -32.606 -30.720  31.582  0.00  0.00    +0.066 C 
ATOM     22  C   UNL     1     -31.186 -30.152  31.255  0.00  0.00    -0.064 C 
ATOM     23  N   UNL     1     -30.397 -29.979  32.553  0.00  0.00    +0.379 N 
ATOM     24  C   UNL     1     -29.042 -29.500  32.244  0.00  0.00    -0.096 C 
ATOM     25  H   UNL     1     -30.301 -30.984  33.027  0.00  0.00    -0.082 HD
ATOM     26  C   UNL     1     -31.140 -29.078  33.530  0.00  0.00    -0.064 C 
ATOM     27  C   UNL     1     -32.560 -29.636  33.825  0.00  0.00    +0.066 C 
ENDBRANCH  19  20
ENDBRANCH  18  19
ENDBRANCH  14  15
ENDBRANCH  12  13
TORSDOF 6
ENDMDL
MODEL 3
REMARK VINA RESULT:      -9.7      1.104      1.665
REMARK  Name = C:\Users\Docking\Desktop\test protocol\1iep_ligandH.pdb
REMARK  8 active torsions:
REMARK  status: ('A' for Active; 'I' for Inactive)
REMARK    1  A    between atoms: _5  and  _11
REMARK    2  A    between atoms: _19  and  _21
REMARK    3  A    between atoms: _22  and  _66
REMARK    4  A    between atoms: _27  and  _30
REMARK    5  A    between atoms: _32  and  _33
REMARK    6  A    between atoms: _38  and  _43
REMARK    7  A    between atoms: _43  and  _46
REMARK    8  A    between atoms: _53  and  _55
REMARK                            x       y       z     vdW  Elec       q    Type
REMARK                         _______ _______ _______ _____ _____    ______ ____
ROOT
ATOM     10  C   UNL     1     -42.368 -35.009  25.548  0.00  0.00    +0.038 A 
ATOM     11  C   UNL     1     -43.704 -34.917  26.015  0.00  0.00    +0.047 A 
ATOM     12  C   UNL     1     -44.828 -35.225  25.144  0.00  0.00    +0.035 A 
ATOM     32  C   UNL     1     -44.555 -35.626  23.804  0.00  0.00    +0.024 A 
ATOM     33  C   UNL     1     -43.203 -35.723  23.313  0.00  0.00    +0.007 A 
ATOM     34  C   UNL     1     -42.090 -35.418  24.166  0.00  0.00    -0.029 A 
ATOM     35  C   UNL     1     -40.662 -35.534  23.584  0.00  0.00    +0.045 C 
ENDROOT
BRANCH  10   9
ATOM      4  C   UNL     1     -39.417 -31.885  27.686  0.00  0.00    +0.077 A 
ATOM      5  C   UNL     1     -39.979 -30.775  26.972  0.00  0.00    +0.048 A 
ATOM      6  C   UNL     1     -41.020 -31.051  26.058  0.00  0.00    +0.116 A 
ATOM      7  N   UNL     1     -41.460 -32.345  25.880  0.00  0.00    -0.223 NA
ATOM      8  C   UNL     1     -40.895 -33.393  26.584  0.00  0.00    +0.220 A 
ATOM      9  N   UNL     1     -41.327 -34.701  26.427  0.00  0.00    -0.283 N 
ATOM     36  H   UNL     1     -40.880 -35.447  26.959  0.00  0.00    +0.155 HD
ATOM     37  N   UNL     1     -39.898 -33.156  27.461  0.00  0.00    -0.214 NA
BRANCH   4   3
ATOM      1  C   UNL     1     -36.541 -30.430  29.903  0.00  0.00    +0.020 A 
ATOM      2  C   UNL     1     -37.600 -30.504  28.923  0.00  0.00    +0.013 A 
ATOM      3  C   UNL     1     -38.312 -31.754  28.688  0.00  0.00    +0.019 A 
ATOM     38  C   UNL     1     -37.925 -32.920  29.468  0.00  0.00    +0.120 A 
ATOM     39  N   UNL     1     -36.900 -32.820  30.403  0.00  0.00    -0.263 NA
ATOM     40  C   UNL     1     -36.207 -31.622  30.637  0.00  0.00    +0.111 A 
ENDBRANCH   4   3
ENDBRANCH  10   9
BRANCH  12  13
ATOM     13  N   UNL     1     -46.206 -35.142  25.560  0.00  0.00    -0.281 N 
ATOM     14  C   UNL     1     -46.960 -34.002  25.787  0.00  0.00    +0.248 C 
ATOM     30  O   UNL     1     -46.498 -32.874  25.874  0.00  0.00    -0.270 OA
ATOM     31  H   UNL     1     -46.684 -36.032  25.704  0.00  0.00    +0.155 HD
BRANCH  14  15
ATOM     15  C   UNL     1     -48.439 -34.137  25.957  0.00  0.00    +0.037 A 
ATOM     16  C   UNL     1     -49.367 -33.225  25.283  0.00  0.00    +0.013 A 
ATOM     17  C   UNL     1     -50.789 -33.366  25.478  0.00  0.00    +0.005 A 
ATOM     18  C   UNL     1     -51.290 -34.425  26.350  0.00  0.00    -0.033 A 
ATOM     28  C   UNL     1     -50.348 -35.319  27.001  0.00  0.00    +0.005 A 
ATOM     29  C   UNL     1     -48.954 -35.183  26.814  0.00  0.00    +0.013 A 
BRANCH  18  19
ATOM     19  C   UNL     1     -52.790 -34.636  26.631  0.00  0.00    +0.119 C 
BRANCH  19  20
ATOM     20  N   UNL     1     -53.415 -35.886  26.105  0.00  0.00    -0.302 NA
ATOM     21  C   UNL     1     -53.348 -37.033  27.118  0.00  0.00    +0.066 C 
ATOM     22  C   UNL     1     -54.027 -38.326  26.559  0.00  0.00    -0.064 C 
ATOM     23  N   UNL     1     -53.354 -38.724  25.245  0.00  0.00    +0.379 N 
ATOM     24  C   UNL     1     -53.952 -39.972  24.747  0.00  0.00    -0.096 C 
ATOM     25  H   UNL     1     -52.280 -38.927  25.462  0.00  0.00    -0.082 HD
ATOM     26  C   UNL     1     -53.414 -37.589  24.233  0.00  0.00    -0.064 C 
ATOM     27  C   UNL     1     -52.763 -36.300  24.809  0.00  0.00    +0.066 C 
ENDBRANCH  19  20
ENDBRANCH  18  19
ENDBRANCH  14  15
ENDBRANCH  12  13
TORSDOF 6
ENDMDL
MODEL 4
REMARK VINA RESULT:      -9.7      2.785     13.757
REMARK  Name = C:\Users\Docking\Desktop\test protocol\1iep_ligandH.pdb
REMARK  8 active torsions:
REMARK  status: ('A' for Active; 'I' for Inactive)
REMARK    1  A    between atoms: _5  and  _11
REMARK    2  A    between atoms: _19  and  _21
REMARK    3  A    between atoms: _22  and  _66
REMARK    4  A    between atoms: _27  and  _30
REMARK    5  A    between atoms: _32  and  _33
REMARK    6  A    between atoms: _38  and  _43
REMARK    7  A    between atoms: _43  and  _46
REMARK    8  A    between atoms: _53  and  _55
REMARK                            x       y       z     vdW  Elec       q    Type
REMARK                         _______ _______ _______ _____ _____    ______ ____
ROOT
ATOM     10  C   UNL     1     -42.166 -34.582  25.828  0.00  0.00    +0.038 A 
ATOM     11  C   UNL     1     -41.465 -33.810  26.790  0.00  0.00    +0.047 A 
ATOM     12  C   UNL     1     -40.059 -33.485  26.614  0.00  0.00    +0.035 A 
ATOM     32  C   UNL     1     -39.396 -33.960  25.445  0.00  0.00    +0.024 A 
ATOM     33  C   UNL     1     -40.093 -34.747  24.458  0.00  0.00    +0.007 A 
ATOM     34  C   UNL     1     -41.480 -35.073  24.627  0.00  0.00    -0.029 A 
ATOM     35  C   UNL     1     -42.174 -35.925  23.539  0.00  0.00    +0.045 C 
ENDROOT
BRANCH  10   9
ATOM      4  C   UNL     1     -46.823 -33.449  25.575  0.00  0.00    +0.077 A 
ATOM      5  C   UNL     1     -46.541 -32.174  24.980  0.00  0.00    +0.048 A 
ATOM      6  C   UNL     1     -45.184 -31.846  24.762  0.00  0.00    +0.116 A 
ATOM      7  N   UNL     1     -44.192 -32.733  25.117  0.00  0.00    -0.223 NA
ATOM      8  C   UNL     1     -44.498 -33.954  25.690  0.00  0.00    +0.220 A 
ATOM      9  N   UNL     1     -43.516 -34.865  26.048  0.00  0.00    -0.283 N 
ATOM     36  H   UNL     1     -43.782 -35.751  26.475  0.00  0.00    +0.155 HD
ATOM     37  N   UNL     1     -45.786 -34.290  25.910  0.00  0.00    -0.214 NA
BRANCH   4   3
ATOM      1  C   UNL     1     -50.719 -33.784  25.691  0.00  0.00    +0.020 A 
ATOM      2  C   UNL     1     -49.405 -33.266  25.383  0.00  0.00    +0.013 A 
ATOM      3  C   UNL     1     -48.207 -33.941  25.865  0.00  0.00    +0.019 A 
ATOM     38  C   UNL     1     -48.373 -35.148  26.662  0.00  0.00    +0.120 A 
ATOM     39  N   UNL     1     -49.651 -35.622  26.944  0.00  0.00    -0.263 NA
ATOM     40  C   UNL     1     -50.811 -34.979  26.487  0.00  0.00    +0.111 A 
ENDBRANCH   4   3
ENDBRANCH  10   9
BRANCH  12  13
ATOM     13  N   UNL     1     -39.293 -32.712  27.561  0.00  0.00    -0.281 N 
ATOM     14  C   UNL     1     -38.712 -33.145  28.742  0.00  0.00    +0.248 C 
ATOM     30  O   UNL     1     -38.944 -34.220  29.272  0.00  0.00    -0.270 OA
ATOM     31  H   UNL     1     -39.165 -31.726  27.333  0.00  0.00    +0.155 HD
BRANCH  14  15
ATOM     15  C   UNL     1     -37.744 -32.246  29.441  0.00  0.00    +0.037 A 
ATOM     16  C   UNL     1     -36.869 -32.752  30.502  0.00  0.00    +0.013 A 
ATOM     17  C   UNL     1     -35.956 -31.860  31.172  0.00  0.00    +0.005 A 
ATOM     18  C   UNL     1     -35.913 -30.453  30.782  0.00  0.00    -0.033 A 
ATOM     28  C   UNL     1     -36.788 -29.979  29.723  0.00  0.00    +0.005 A 
ATOM     29  C   UNL     1     -37.685 -30.850  29.064  0.00  0.00    +0.013 A 
BRANCH  18  19
ATOM     19  C   UNL     1     -34.985 -29.425  31.457  0.00  0.00    +0.119 C 
BRANCH  19  20
ATOM     20  N   UNL     1     -33.957 -29.951  32.404  0.00  0.00    -0.302 NA
ATOM     21  C   UNL     1     -34.189 -29.459  33.836  0.00  0.00    +0.066 C 
ATOM     22  C   UNL     1     -33.117 -30.036  34.817  0.00  0.00    -0.064 C 
ATOM     23  N   UNL     1     -31.721 -29.647  34.330  0.00  0.00    +0.379 N 
ATOM     24  C   UNL     1     -30.714 -30.139  35.281  0.00  0.00    -0.096 C 
ATOM     25  H   UNL     1     -31.664 -28.534  34.322  0.00  0.00    -0.082 HD
ATOM     26  C   UNL     1     -31.483 -30.131  32.906  0.00  0.00    -0.064 C 
ATOM     27  C   UNL     1     -32.570 -29.575  31.944  0.00  0.00    +0.066 C 
ENDBRANCH  19  20
ENDBRANCH  18  19
ENDBRANCH  14  15
ENDBRANCH  12  13
TORSDOF 6
ENDMDL
MODEL 5
REMARK VINA RESULT:      -9.5      2.962     12.863
REMARK  Name = C:\Users\Docking\Desktop\test protocol\1iep_ligandH.pdb
REMARK  8 active torsions:
REMARK  status: ('A' for Active; 'I' for Inactive)
REMARK    1  A    between atoms: _5  and  _11
REMARK    2  A    between atoms: _19  and  _21
REMARK    3  A    between atoms: _22  and  _66
REMARK    4  A    between atoms: _27  and  _30
REMARK    5  A    between atoms: _32  and  _33
REMARK    6  A    between atoms: _38  and  _43
REMARK    7  A    between atoms: _43  and  _46
REMARK    8  A    between atoms: _53  and  _55
REMARK                            x       y       z     vdW  Elec       q    Type
REMARK                         _______ _______ _______ _____ _____    ______ ____
ROOT
ATOM     10  C   UNL     1     -41.367 -34.770  25.834  0.00  0.00    +0.038 A 
ATOM     11  C   UNL     1     -40.540 -34.142  26.801  0.00  0.00    +0.047 A 
ATOM     12  C   UNL     1     -39.122 -33.930  26.555  0.00  0.00    +0.035 A 
ATOM     32  C   UNL     1     -38.580 -34.367  25.311  0.00  0.00    +0.024 A 
ATOM     33  C   UNL     1     -39.405 -35.008  24.318  0.00  0.00    +0.007 A 
ATOM     34  C   UNL     1     -40.804 -35.223  24.557  0.00  0.00    -0.029 A 
ATOM     35  C   UNL     1     -41.640 -35.921  23.459  0.00  0.00    +0.045 C 
ENDROOT
BRANCH  10   9
ATOM      4  C   UNL     1     -45.984 -33.532  25.407  0.00  0.00    +0.077 A 
ATOM      5  C   UNL     1     -45.669 -32.419  24.558  0.00  0.00    +0.048 A 
ATOM      6  C   UNL     1     -44.306 -32.196  24.261  0.00  0.00    +0.116 A 
ATOM      7  N   UNL     1     -43.339 -33.029  24.780  0.00  0.00    -0.223 NA
ATOM      8  C   UNL     1     -43.677 -34.092  25.597  0.00  0.00    +0.220 A 
ATOM      9  N   UNL     1     -42.722 -34.948  26.123  0.00  0.00    -0.283 N 
ATOM     36  H   UNL     1     -43.011 -35.716  26.728  0.00  0.00    +0.155 HD
ATOM     37  N   UNL     1     -44.972 -34.326  25.897  0.00  0.00    -0.214 NA
BRANCH   4   3
ATOM      1  C   UNL     1     -49.058 -35.415  26.927  0.00  0.00    +0.020 A 
ATOM      2  C   UNL     1     -47.694 -35.106  26.563  0.00  0.00    +0.013 A 
ATOM      3  C   UNL     1     -47.379 -33.899  25.809  0.00  0.00    +0.019 A 
ATOM     38  C   UNL     1     -48.476 -33.018  25.436  0.00  0.00    +0.120 A 
ATOM     39  N   UNL     1     -49.779 -33.342  25.799  0.00  0.00    -0.263 NA
ATOM     40  C   UNL     1     -50.095 -34.502  26.523  0.00  0.00    +0.111 A 
ENDBRANCH   4   3
ENDBRANCH  10   9
BRANCH  12  13
ATOM     13  N   UNL     1     -38.232 -33.305  27.502  0.00  0.00    -0.281 N 
ATOM     14  C   UNL     1     -38.381 -32.080  28.131  0.00  0.00    +0.248 C 
ATOM     30  O   UNL     1     -39.204 -31.235  27.811  0.00  0.00    -0.270 OA
ATOM     31  H   UNL     1     -37.390 -33.830  27.736  0.00  0.00    +0.155 HD
BRANCH  14  15
ATOM     15  C   UNL     1     -37.477 -31.739  29.271  0.00  0.00    +0.037 A 
ATOM     16  C   UNL     1     -37.059 -32.756  30.239  0.00  0.00    +0.013 A 
ATOM     17  C   UNL     1     -36.200 -32.397  31.340  0.00  0.00    +0.005 A 
ATOM     18  C   UNL     1     -35.752 -31.013  31.477  0.00  0.00    -0.033 A 
ATOM     28  C   UNL     1     -36.178 -30.025  30.499  0.00  0.00    +0.005 A 
ATOM     29  C   UNL     1     -37.021 -30.374  29.420  0.00  0.00    +0.013 A 
BRANCH  18  19
ATOM     19  C   UNL     1     -34.852 -30.535  32.631  0.00  0.00    +0.119 C 
BRANCH  19  20
ATOM     20  N   UNL     1     -35.529 -30.002  33.851  0.00  0.00    -0.302 NA
ATOM     21  C   UNL     1     -34.528 -29.446  34.867  0.00  0.00    +0.066 C 
ATOM     22  C   UNL     1     -35.254 -28.872  36.127  0.00  0.00    -0.064 C 
ATOM     23  N   UNL     1     -36.116 -29.966  36.758  0.00  0.00    +0.379 N 
ATOM     24  C   UNL     1     -36.755 -29.446  37.976  0.00  0.00    -0.096 C 
ATOM     25  H   UNL     1     -35.438 -30.798  37.061  0.00  0.00    -0.082 HD
ATOM     26  C   UNL     1     -37.113 -30.526  35.754  0.00  0.00    -0.064 C 
ATOM     27  C   UNL     1     -36.382 -31.068  34.493  0.00  0.00    +0.066 C 
ENDBRANCH  19  20
ENDBRANCH  18  19
ENDBRANCH  14  15
ENDBRANCH  12  13
TORSDOF 6
ENDMDL
