MODEL 1
REMARK VINA RESULT:      -8.7      0.000      0.000
REMARK  Name = C:\Users\Docking\Desktop\test protocol\1iep_ligandH.pdb
REMARK  8 active torsions:
REMARK  status: ('A' for Active; 'I' for Inactive)
REMARK    1  A    between atoms: _5  and  _11
REMARK    2  A    between atoms: _19  and  _21
REMARK    3  A    between atoms: _22  and  _66
REMARK    4  A    between atoms: _27  and  _30
REMARK    5  A    between atoms: _32  and  _33
REMARK    6  A    between atoms: _38  and  _43
REMARK    7  A    between atoms: _43  and  _46
REMARK    8  A    between atoms: _53  and  _55
REMARK                            x       y       z     vdW  Elec       q    Type
REMARK                         _______ _______ _______ _____ _____    ______ ____
ROOT
ATOM     10  C   UNL     1      65.423  13.455   9.031  0.00  0.00    +0.038 A 
ATOM     11  C   UNL     1      65.089  12.311   9.800  0.00  0.00    +0.047 A 
ATOM     12  C   UNL     1      63.818  11.627   9.618  0.00  0.00    +0.035 A 
ATOM     32  C   UNL     1      62.911  12.135   8.643  0.00  0.00    +0.024 A 
ATOM     33  C   UNL     1      63.233  13.298   7.854  0.00  0.00    +0.007 A 
ATOM     34  C   UNL     1      64.485  13.978   8.031  0.00  0.00    -0.029 A 
ATOM     35  C   UNL     1      64.775  15.224   7.161  0.00  0.00    +0.045 C 
ENDROOT
BRANCH  10   9
ATOM      4  C   UNL     1      68.236  16.619  11.293  0.00  0.00    +0.077 A 
ATOM      5  C   UNL     1      67.148  17.102  12.094  0.00  0.00    +0.048 A 
ATOM      6  C   UNL     1      65.880  16.515  11.889  0.00  0.00    +0.116 A 
ATOM      7  N   UNL     1      65.722  15.519  10.949  0.00  0.00    -0.223 NA
ATOM      8  C   UNL     1      66.791  15.078  10.192  0.00  0.00    +0.220 A 
ATOM      9  N   UNL     1      66.657  14.072   9.247  0.00  0.00    -0.283 N 
ATOM     36  H   UNL     1      67.469  13.780   8.703  0.00  0.00    +0.155 HD
ATOM     37  N   UNL     1      68.012  15.624  10.368  0.00  0.00    -0.214 NA
BRANCH   4   3
ATOM      1  C   UNL     1      71.539  18.203  12.664  0.00  0.00    +0.020 A 
ATOM      2  C   UNL     1      70.179  17.717  12.618  0.00  0.00    +0.013 A 
ATOM      3  C   UNL     1      69.636  17.138  11.395  0.00  0.00    +0.019 A 
ATOM     38  C   UNL     1      70.503  17.063  10.229  0.00  0.00    +0.120 A 
ATOM     39  N   UNL     1      71.808  17.540  10.303  0.00  0.00    -0.263 NA
ATOM     40  C   UNL     1      72.341  18.101  11.473  0.00  0.00    +0.111 A 
ENDBRANCH   4   3
ENDBRANCH  10   9
BRANCH  12  13
ATOM     13  N   UNL     1      63.421  10.465  10.375  0.00  0.00    -0.281 N 
ATOM     14  C   UNL     1      63.719   9.137  10.116  0.00  0.00    +0.248 C 
ATOM     30  O   UNL     1      64.197   8.728   9.068  0.00  0.00    -0.270 OA
ATOM     31  H   UNL     1      62.852  10.644  11.202  0.00  0.00    +0.155 HD
BRANCH  14  15
ATOM     15  C   UNL     1      63.432   8.114  11.167  0.00  0.00    +0.037 A 
ATOM     16  C   UNL     1      62.145   8.085  11.867  0.00  0.00    +0.013 A 
ATOM     17  C   UNL     1      61.900   7.098  12.888  0.00  0.00    +0.005 A 
ATOM     18  C   UNL     1      62.945   6.131  13.215  0.00  0.00    -0.033 A 
ATOM     28  C   UNL     1      64.211   6.180  12.502  0.00  0.00    +0.005 A 
ATOM     29  C   UNL     1      64.455   7.146  11.500  0.00  0.00    +0.013 A 
BRANCH  18  19
ATOM     19  C   UNL     1      62.779   5.056  14.306  0.00  0.00    +0.119 C 
BRANCH  19  20
ATOM     20  N   UNL     1      63.330   5.364  15.659  0.00  0.00    -0.302 NA
ATOM     21  C   UNL     1      63.055   4.240  16.661  0.00  0.00    +0.066 C 
ATOM     22  C   UNL     1      63.658   4.569  18.066  0.00  0.00    -0.064 C 
ATOM     23  N   UNL     1      63.083   5.894  18.567  0.00  0.00    +0.379 N 
ATOM     24  C   UNL     1      63.604   6.178  19.913  0.00  0.00    -0.096 C 
ATOM     25  H   UNL     1      61.978   5.773  18.651  0.00  0.00    -0.082 HD
ATOM     26  C   UNL     1      63.350   7.017  17.575  0.00  0.00    -0.064 C 
ATOM     27  C   UNL     1      62.772   6.668  16.176  0.00  0.00    +0.066 C 
ENDBRANCH  19  20
ENDBRANCH  18  19
ENDBRANCH  14  15
ENDBRANCH  12  13
TORSDOF 6
ENDMDL
MODEL 2
REMARK VINA RESULT:      -8.5      7.812     12.416
REMARK  Name = C:\Users\Docking\Desktop\test protocol\1iep_ligandH.pdb
REMARK  8 active torsions:
REMARK  status: ('A' for Active; 'I' for Inactive)
REMARK    1  A    between atoms: _5  and  _11
REMARK    2  A    between atoms: _19  and  _21
REMARK    3  A    between atoms: _22  and  _66
REMARK    4  A    between atoms: _27  and  _30
REMARK    5  A    between atoms: _32  and  _33
REMARK    6  A    between atoms: _38  and  _43
REMARK    7  A    between atoms: _43  and  _46
REMARK    8  A    between atoms: _53  and  _55
REMARK                            x       y       z     vdW  Elec       q    Type
REMARK                         _______ _______ _______ _____ _____    ______ ____
ROOT
ATOM     10  C   UNL     1      70.161   6.475   7.392  0.00  0.00    +0.038 A 
ATOM     11  C   UNL     1      70.004   7.863   7.637  0.00  0.00    +0.047 A 
ATOM     12  C   UNL     1      68.995   8.642   6.936  0.00  0.00    +0.035 A 
ATOM     32  C   UNL     1      68.161   7.975   5.992  0.00  0.00    +0.024 A 
ATOM     33  C   UNL     1      68.307   6.564   5.730  0.00  0.00    +0.007 A 
ATOM     34  C   UNL     1      69.302   5.791   6.417  0.00  0.00    -0.029 A 
ATOM     35  C   UNL     1      69.418   4.284   6.091  0.00  0.00    +0.045 C 
ENDROOT
BRANCH  10   9
ATOM      4  C   UNL     1      74.554   4.578   7.761  0.00  0.00    +0.077 A 
ATOM      5  C   UNL     1      74.908   4.991   6.434  0.00  0.00    +0.048 A 
ATOM      6  C   UNL     1      73.929   5.683   5.687  0.00  0.00    +0.116 A 
ATOM      7  N   UNL     1      72.691   5.938   6.236  0.00  0.00    -0.223 NA
ATOM      8  C   UNL     1      72.381   5.524   7.518  0.00  0.00    +0.220 A 
ATOM      9  N   UNL     1      71.145   5.776   8.093  0.00  0.00    -0.283 N 
ATOM     36  H   UNL     1      70.953   5.448   9.039  0.00  0.00    +0.155 HD
ATOM     37  N   UNL     1      73.298   4.860   8.252  0.00  0.00    -0.214 NA
BRANCH   4   3
ATOM      1  C   UNL     1      77.090   1.967   9.194  0.00  0.00    +0.020 A 
ATOM      2  C   UNL     1      76.206   2.642   8.272  0.00  0.00    +0.013 A 
ATOM      3  C   UNL     1      75.481   3.840   8.676  0.00  0.00    +0.019 A 
ATOM     38  C   UNL     1      75.676   4.334  10.031  0.00  0.00    +0.120 A 
ATOM     39  N   UNL     1      76.533   3.663  10.898  0.00  0.00    -0.263 NA
ATOM     40  C   UNL     1      77.234   2.508  10.520  0.00  0.00    +0.111 A 
ENDBRANCH   4   3
ENDBRANCH  10   9
BRANCH  12  13
ATOM     13  N   UNL     1      68.795  10.056   7.137  0.00  0.00    -0.281 N 
ATOM     14  C   UNL     1      67.776  10.681   7.838  0.00  0.00    +0.248 C 
ATOM     30  O   UNL     1      66.758  10.124   8.219  0.00  0.00    -0.270 OA
ATOM     31  H   UNL     1      69.489  10.671   6.712  0.00  0.00    +0.155 HD
BRANCH  14  15
ATOM     15  C   UNL     1      67.900  12.138   8.146  0.00  0.00    +0.037 A 
ATOM     16  C   UNL     1      68.663  13.037   7.277  0.00  0.00    +0.013 A 
ATOM     17  C   UNL     1      68.781  14.435   7.606  0.00  0.00    +0.005 A 
ATOM     18  C   UNL     1      68.131  14.943   8.812  0.00  0.00    -0.033 A 
ATOM     28  C   UNL     1      67.375  14.031   9.654  0.00  0.00    +0.005 A 
ATOM     29  C   UNL     1      67.259  12.659   9.334  0.00  0.00    +0.013 A 
BRANCH  18  19
ATOM     19  C   UNL     1      68.221  16.416   9.253  0.00  0.00    +0.119 C 
BRANCH  19  20
ATOM     20  N   UNL     1      69.315  16.781  10.201  0.00  0.00    -0.302 NA
ATOM     21  C   UNL     1      68.909  17.923  11.136  0.00  0.00    +0.066 C 
ATOM     22  C   UNL     1      70.058  18.276  12.136  0.00  0.00    -0.064 C 
ATOM     23  N   UNL     1      71.319  18.642  11.351  0.00  0.00    +0.379 N 
ATOM     24  C   UNL     1      72.384  19.030  12.287  0.00  0.00    -0.096 C 
ATOM     25  H   UNL     1      71.080  19.531  10.723  0.00  0.00    -0.082 HD
ATOM     26  C   UNL     1      71.729  17.512  10.417  0.00  0.00    -0.064 C 
ATOM     27  C   UNL     1      70.569  17.149   9.447  0.00  0.00    +0.066 C 
ENDBRANCH  19  20
ENDBRANCH  18  19
ENDBRANCH  14  15
ENDBRANCH  12  13
TORSDOF 6
ENDMDL
MODEL 3
REMARK VINA RESULT:      -8.4      5.756      9.273
REMARK  Name = C:\Users\Docking\Desktop\test protocol\1iep_ligandH.pdb
REMARK  8 active torsions:
REMARK  status: ('A' for Active; 'I' for Inactive)
REMARK    1  A    between atoms: _5  and  _11
REMARK    2  A    between atoms: _19  and  _21
REMARK    3  A    between atoms: _22  and  _66
REMARK    4  A    between atoms: _27  and  _30
REMARK    5  A    between atoms: _32  and  _33
REMARK    6  A    between atoms: _38  and  _43
REMARK    7  A    between atoms: _43  and  _46
REMARK    8  A    between atoms: _53  and  _55
REMARK                            x       y       z     vdW  Elec       q    Type
REMARK                         _______ _______ _______ _____ _____    ______ ____
ROOT
ATOM     10  C   UNL     1      65.195  18.347   9.930  0.00  0.00    +0.038 A 
ATOM     11  C   UNL     1      65.398  16.991   9.568  0.00  0.00    +0.047 A 
ATOM     12  C   UNL     1      66.514  16.227  10.106  0.00  0.00    +0.035 A 
ATOM     32  C   UNL     1      67.402  16.877  11.012  0.00  0.00    +0.024 A 
ATOM     33  C   UNL     1      67.212  18.255  11.389  0.00  0.00    +0.007 A 
ATOM     34  C   UNL     1      66.115  19.014  10.860  0.00  0.00    -0.029 A 
ATOM     35  C   UNL     1      65.963  20.490  11.295  0.00  0.00    +0.045 C 
ENDROOT
BRANCH  10   9
ATOM      4  C   UNL     1      60.667  19.927  10.106  0.00  0.00    +0.077 A 
ATOM      5  C   UNL     1      60.440  19.313  11.383  0.00  0.00    +0.048 A 
ATOM      6  C   UNL     1      61.512  18.593  11.956  0.00  0.00    +0.116 A 
ATOM      7  N   UNL     1      62.717  18.502  11.294  0.00  0.00    -0.223 NA
ATOM      8  C   UNL     1      62.902  19.105  10.064  0.00  0.00    +0.220 A 
ATOM      9  N   UNL     1      64.108  19.032   9.384  0.00  0.00    -0.283 N 
ATOM     36  H   UNL     1      64.202  19.485   8.475  0.00  0.00    +0.155 HD
ATOM     37  N   UNL     1      61.893  19.796   9.494  0.00  0.00    -0.214 NA
BRANCH   4   3
ATOM      1  C   UNL     1      58.382  22.862   8.894  0.00  0.00    +0.020 A 
ATOM      2  C   UNL     1      59.393  22.138   9.631  0.00  0.00    +0.013 A 
ATOM      3  C   UNL     1      59.633  20.724   9.373  0.00  0.00    +0.019 A 
ATOM     38  C   UNL     1      58.827  20.066   8.356  0.00  0.00    +0.120 A 
ATOM     39  N   UNL     1      57.859  20.788   7.664  0.00  0.00    -0.263 NA
ATOM     40  C   UNL     1      57.619  22.149   7.904  0.00  0.00    +0.111 A 
ENDBRANCH   4   3
ENDBRANCH  10   9
BRANCH  12  13
ATOM     13  N   UNL     1      66.775  14.850   9.769  0.00  0.00    -0.281 N 
ATOM     14  C   UNL     1      65.987  13.743  10.040  0.00  0.00    +0.248 C 
ATOM     30  O   UNL     1      65.034  13.743  10.805  0.00  0.00    -0.270 OA
ATOM     31  H   UNL     1      67.646  14.669   9.271  0.00  0.00    +0.155 HD
BRANCH  14  15
ATOM     15  C   UNL     1      66.313  12.445   9.375  0.00  0.00    +0.037 A 
ATOM     16  C   UNL     1      65.574  11.221   9.694  0.00  0.00    +0.013 A 
ATOM     17  C   UNL     1      65.920   9.978   9.051  0.00  0.00    +0.005 A 
ATOM     18  C   UNL     1      67.012   9.954   8.080  0.00  0.00    -0.033 A 
ATOM     28  C   UNL     1      67.725  11.184   7.778  0.00  0.00    +0.005 A 
ATOM     29  C   UNL     1      67.389  12.404   8.407  0.00  0.00    +0.013 A 
BRANCH  18  19
ATOM     19  C   UNL     1      67.464   8.669   7.361  0.00  0.00    +0.119 C 
BRANCH  19  20
ATOM     20  N   UNL     1      68.849   8.184   7.634  0.00  0.00    -0.302 NA
ATOM     21  C   UNL     1      69.778   8.396   6.436  0.00  0.00    +0.066 C 
ATOM     22  C   UNL     1      71.230   7.903   6.746  0.00  0.00    -0.064 C 
ATOM     23  N   UNL     1      71.190   6.428   7.147  0.00  0.00    +0.379 N 
ATOM     24  C   UNL     1      72.559   5.947   7.384  0.00  0.00    -0.096 C 
ATOM     25  H   UNL     1      70.774   5.855   6.286  0.00  0.00    -0.082 HD
ATOM     26  C   UNL     1      70.266   6.208   8.337  0.00  0.00    -0.064 C 
ATOM     27  C   UNL     1      68.834   6.727   8.028  0.00  0.00    +0.066 C 
ENDBRANCH  19  20
ENDBRANCH  18  19
ENDBRANCH  14  15
ENDBRANCH  12  13
TORSDOF 6
ENDMDL
MODEL 4
REMARK VINA RESULT:      -8.2      7.784     11.885
REMARK  Name = C:\Users\Docking\Desktop\test protocol\1iep_ligandH.pdb
REMARK  8 active torsions:
REMARK  status: ('A' for Active; 'I' for Inactive)
REMARK    1  A    between atoms: _5  and  _11
REMARK    2  A    between atoms: _19  and  _21
REMARK    3  A    between atoms: _22  and  _66
REMARK    4  A    between atoms: _27  and  _30
REMARK    5  A    between atoms: _32  and  _33
REMARK    6  A    between atoms: _38  and  _43
REMARK    7  A    between atoms: _43  and  _46
REMARK    8  A    between atoms: _53  and  _55
REMARK                            x       y       z     vdW  Elec       q    Type
REMARK                         _______ _______ _______ _____ _____    ______ ____
ROOT
ATOM     10  C   UNL     1      70.060   6.701   7.931  0.00  0.00    +0.038 A 
ATOM     11  C   UNL     1      69.974   8.084   8.233  0.00  0.00    +0.047 A 
ATOM     12  C   UNL     1      68.911   8.909   7.681  0.00  0.00    +0.035 A 
ATOM     32  C   UNL     1      67.950   8.292   6.828  0.00  0.00    +0.024 A 
ATOM     33  C   UNL     1      68.023   6.888   6.511  0.00  0.00    +0.007 A 
ATOM     34  C   UNL     1      69.071   6.069   7.050  0.00  0.00    -0.029 A 
ATOM     35  C   UNL     1      69.104   4.571   6.670  0.00  0.00    +0.045 C 
ENDROOT
BRANCH  10   9
ATOM      4  C   UNL     1      74.418   4.701   7.719  0.00  0.00    +0.077 A 
ATOM      5  C   UNL     1      74.626   5.157   6.375  0.00  0.00    +0.048 A 
ATOM      6  C   UNL     1      73.585   5.896   5.771  0.00  0.00    +0.116 A 
ATOM      7  N   UNL     1      72.425   6.155   6.470  0.00  0.00    -0.223 NA
ATOM      8  C   UNL     1      72.256   5.700   7.764  0.00  0.00    +0.220 A 
ATOM      9  N   UNL     1      71.102   5.956   8.488  0.00  0.00    -0.283 N 
ATOM     36  H   UNL     1      71.012   5.596   9.438  0.00  0.00    +0.155 HD
ATOM     37  N   UNL     1      73.235   4.990   8.362  0.00  0.00    -0.214 NA
BRANCH   4   3
ATOM      1  C   UNL     1      76.975   1.940   8.789  0.00  0.00    +0.020 A 
ATOM      2  C   UNL     1      76.003   2.665   8.002  0.00  0.00    +0.013 A 
ATOM      3  C   UNL     1      75.427   3.911   8.493  0.00  0.00    +0.019 A 
ATOM     38  C   UNL     1      75.859   4.400   9.794  0.00  0.00    +0.120 A 
ATOM     39  N   UNL     1      76.794   3.680  10.529  0.00  0.00    -0.263 NA
ATOM     40  C   UNL     1      77.355   2.479  10.068  0.00  0.00    +0.111 A 
ENDBRANCH   4   3
ENDBRANCH  10   9
BRANCH  12  13
ATOM     13  N   UNL     1      68.777  10.321   7.945  0.00  0.00    -0.281 N 
ATOM     14  C   UNL     1      68.442  11.326   7.053  0.00  0.00    +0.248 C 
ATOM     30  O   UNL     1      68.415  11.192   5.839  0.00  0.00    -0.270 OA
ATOM     31  H   UNL     1      68.950  10.614   8.907  0.00  0.00    +0.155 HD
BRANCH  14  15
ATOM     15  C   UNL     1      68.102  12.680   7.586  0.00  0.00    +0.037 A 
ATOM     16  C   UNL     1      68.281  13.885   6.771  0.00  0.00    +0.013 A 
ATOM     17  C   UNL     1      67.962  15.181   7.315  0.00  0.00    +0.005 A 
ATOM     18  C   UNL     1      67.457  15.278   8.683  0.00  0.00    -0.033 A 
ATOM     28  C   UNL     1      67.284  14.067   9.467  0.00  0.00    +0.005 A 
ATOM     29  C   UNL     1      67.598  12.795   8.938  0.00  0.00    +0.013 A 
BRANCH  18  19
ATOM     19  C   UNL     1      67.111  16.621   9.352  0.00  0.00    +0.119 C 
BRANCH  19  20
ATOM     20  N   UNL     1      65.847  16.684  10.145  0.00  0.00    -0.302 NA
ATOM     21  C   UNL     1      64.779  17.539   9.457  0.00  0.00    +0.066 C 
ATOM     22  C   UNL     1      63.456  17.575  10.289  0.00  0.00    -0.064 C 
ATOM     23  N   UNL     1      63.753  18.106  11.693  0.00  0.00    +0.379 N 
ATOM     24  C   UNL     1      62.502  18.196  12.459  0.00  0.00    -0.096 C 
ATOM     25  H   UNL     1      64.159  19.139  11.585  0.00  0.00    -0.082 HD
ATOM     26  C   UNL     1      64.816  17.263  12.383  0.00  0.00    -0.064 C 
ATOM     27  C   UNL     1      66.117  17.209  11.534  0.00  0.00    +0.066 C 
ENDBRANCH  19  20
ENDBRANCH  18  19
ENDBRANCH  14  15
ENDBRANCH  12  13
TORSDOF 6
ENDMDL
MODEL 5
REMARK VINA RESULT:      -8.0      7.443     11.518
REMARK  Name = C:\Users\Docking\Desktop\test protocol\1iep_ligandH.pdb
REMARK  8 active torsions:
REMARK  status: ('A' for Active; 'I' for Inactive)
REMARK    1  A    between atoms: _5  and  _11
REMARK    2  A    between atoms: _19  and  _21
REMARK    3  A    between atoms: _22  and  _66
REMARK    4  A    between atoms: _27  and  _30
REMARK    5  A    between atoms: _32  and  _33
REMARK    6  A    between atoms: _38  and  _43
REMARK    7  A    between atoms: _43  and  _46
REMARK    8  A    between atoms: _53  and  _55
REMARK                            x       y       z     vdW  Elec       q    Type
REMARK                         _______ _______ _______ _____ _____    ______ ____
ROOT
ATOM     10  C   UNL     1      64.439  17.115   9.338  0.00  0.00    +0.038 A 
ATOM     11  C   UNL     1      63.521  17.949  10.027  0.00  0.00    +0.047 A 
ATOM     12  C   UNL     1      62.089  17.698   9.973  0.00  0.00    +0.035 A 
ATOM     32  C   UNL     1      61.627  16.586   9.210  0.00  0.00    +0.024 A 
ATOM     33  C   UNL     1      62.545  15.729   8.503  0.00  0.00    +0.007 A 
ATOM     34  C   UNL     1      63.959  15.973   8.550  0.00  0.00    -0.029 A 
ATOM     35  C   UNL     1      64.897  15.025   7.768  0.00  0.00    +0.045 C 
ENDROOT
BRANCH  10   9
ATOM      4  C   UNL     1      68.556  17.404  11.788  0.00  0.00    +0.077 A 
ATOM      5  C   UNL     1      67.931  16.972  13.005  0.00  0.00    +0.048 A 
ATOM      6  C   UNL     1      66.547  16.693  12.960  0.00  0.00    +0.116 A 
ATOM      7  N   UNL     1      65.850  16.837  11.780  0.00  0.00    -0.223 NA
ATOM      8  C   UNL     1      66.483  17.257  10.624  0.00  0.00    +0.220 A 
ATOM      9  N   UNL     1      65.803  17.402   9.425  0.00  0.00    -0.283 N 
ATOM     36  H   UNL     1      66.304  17.721   8.596  0.00  0.00    +0.155 HD
ATOM     37  N   UNL     1      67.804  17.532  10.642  0.00  0.00    -0.214 NA
BRANCH   4   3
ATOM      1  C   UNL     1      72.180  18.631  12.602  0.00  0.00    +0.020 A 
ATOM      2  C   UNL     1      70.776  18.333  12.763  0.00  0.00    +0.013 A 
ATOM      3  C   UNL     1      70.012  17.734  11.675  0.00  0.00    +0.019 A 
ATOM     38  C   UNL     1      70.705  17.448  10.428  0.00  0.00    +0.120 A 
ATOM     39  N   UNL     1      72.058  17.748  10.301  0.00  0.00    -0.263 NA
ATOM     40  C   UNL     1      72.802  18.326  11.341  0.00  0.00    +0.111 A 
ENDBRANCH   4   3
ENDBRANCH  10   9
BRANCH  12  13
ATOM     13  N   UNL     1      61.110  18.515  10.644  0.00  0.00    -0.281 N 
ATOM     14  C   UNL     1      60.961  18.720  12.006  0.00  0.00    +0.248 C 
ATOM     30  O   UNL     1      61.518  18.058  12.870  0.00  0.00    -0.270 OA
ATOM     31  H   UNL     1      60.445  19.002  10.043  0.00  0.00    +0.155 HD
BRANCH  14  15
ATOM     15  C   UNL     1      60.050  19.807  12.478  0.00  0.00    +0.037 A 
ATOM     16  C   UNL     1      59.354  20.680  11.529  0.00  0.00    +0.013 A 
ATOM     17  C   UNL     1      58.495  21.732  12.011  0.00  0.00    +0.005 A 
ATOM     18  C   UNL     1      58.326  21.916  13.451  0.00  0.00    -0.033 A 
ATOM     28  C   UNL     1      59.024  21.032  14.369  0.00  0.00    +0.005 A 
ATOM     29  C   UNL     1      59.868  20.000  13.901  0.00  0.00    +0.013 A 
BRANCH  18  19
ATOM     19  C   UNL     1      57.445  23.026  14.054  0.00  0.00    +0.119 C 
BRANCH  19  20
ATOM     20  N   UNL     1      58.127  24.287  14.475  0.00  0.00    -0.302 NA
ATOM     21  C   UNL     1      59.381  24.567  13.642  0.00  0.00    +0.066 C 
ATOM     22  C   UNL     1      60.069  25.901  14.080  0.00  0.00    -0.064 C 
ATOM     23  N   UNL     1      60.412  25.830  15.569  0.00  0.00    +0.379 N 
ATOM     24  C   UNL     1      61.111  27.059  15.971  0.00  0.00    -0.096 C 
ATOM     25  H   UNL     1      61.116  24.977  15.713  0.00  0.00    -0.082 HD
ATOM     26  C   UNL     1      59.171  25.548  16.404  0.00  0.00    -0.064 C 
ATOM     27  C   UNL     1      58.479  24.236  15.941  0.00  0.00    +0.066 C 
ENDBRANCH  19  20
ENDBRANCH  18  19
ENDBRANCH  14  15
ENDBRANCH  12  13
TORSDOF 6
ENDMDL
