MODEL 1
REMARK VINA RESULT:      -8.6      0.000      0.000
REMARK  Name = C:\Users\Docking\Desktop\test protocol\1iep_ligandH.pdb
REMARK  8 active torsions:
REMARK  status: ('A' for Active; 'I' for Inactive)
REMARK    1  A    between atoms: _5  and  _11
REMARK    2  A    between atoms: _19  and  _21
REMARK    3  A    between atoms: _22  and  _66
REMARK    4  A    between atoms: _27  and  _30
REMARK    5  A    between atoms: _32  and  _33
REMARK    6  A    between atoms: _38  and  _43
REMARK    7  A    between atoms: _43  and  _46
REMARK    8  A    between atoms: _53  and  _55
REMARK                            x       y       z     vdW  Elec       q    Type
REMARK                         _______ _______ _______ _____ _____    ______ ____
ROOT
ATOM     10  C   UNL     1      73.242  23.821  16.341  0.00  0.00    +0.038 A 
ATOM     11  C   UNL     1      73.084  22.714  15.469  0.00  0.00    +0.047 A 
ATOM     12  C   UNL     1      72.513  21.461  15.939  0.00  0.00    +0.035 A 
ATOM     32  C   UNL     1      72.112  21.372  17.304  0.00  0.00    +0.024 A 
ATOM     33  C   UNL     1      72.267  22.488  18.205  0.00  0.00    +0.007 A 
ATOM     34  C   UNL     1      72.832  23.725  17.747  0.00  0.00    -0.029 A 
ATOM     35  C   UNL     1      72.980  24.886  18.758  0.00  0.00    +0.045 C 
ENDROOT
BRANCH  10   9
ATOM      4  C   UNL     1      76.965  26.739  15.524  0.00  0.00    +0.077 A 
ATOM      5  C   UNL     1      77.880  25.852  16.183  0.00  0.00    +0.048 A 
ATOM      6  C   UNL     1      77.352  24.659  16.724  0.00  0.00    +0.116 A 
ATOM      7  N   UNL     1      76.006  24.383  16.610  0.00  0.00    -0.223 NA
ATOM      8  C   UNL     1      75.151  25.261  15.970  0.00  0.00    +0.220 A 
ATOM      9  N   UNL     1      73.796  25.000  15.836  0.00  0.00    -0.283 N 
ATOM     36  H   UNL     1      73.196  25.676  15.363  0.00  0.00    +0.155 HD
ATOM     37  N   UNL     1      75.631  26.407  15.445  0.00  0.00    -0.214 NA
BRANCH   4   3
ATOM      1  C   UNL     1      78.503  30.290  14.959  0.00  0.00    +0.020 A 
ATOM      2  C   UNL     1      78.135  29.054  15.609  0.00  0.00    +0.013 A 
ATOM      3  C   UNL     1      77.372  28.036  14.898  0.00  0.00    +0.019 A 
ATOM     38  C   UNL     1      76.995  28.302  13.518  0.00  0.00    +0.120 A 
ATOM     39  N   UNL     1      77.363  29.502  12.918  0.00  0.00    -0.263 NA
ATOM     40  C   UNL     1      78.096  30.490  13.593  0.00  0.00    +0.111 A 
ENDBRANCH   4   3
ENDBRANCH  10   9
BRANCH  12  13
ATOM     13  N   UNL     1      72.335  20.301  15.103  0.00  0.00    -0.281 N 
ATOM     14  C   UNL     1      71.158  19.630  14.816  0.00  0.00    +0.248 C 
ATOM     30  O   UNL     1      70.104  19.799  15.411  0.00  0.00    -0.270 OA
ATOM     31  H   UNL     1      73.180  19.929  14.668  0.00  0.00    +0.155 HD
BRANCH  14  15
ATOM     15  C   UNL     1      71.154  18.613  13.721  0.00  0.00    +0.037 A 
ATOM     16  C   UNL     1      72.293  17.715  13.513  0.00  0.00    +0.013 A 
ATOM     17  C   UNL     1      72.271  16.755  12.439  0.00  0.00    +0.005 A 
ATOM     18  C   UNL     1      71.103  16.687  11.563  0.00  0.00    -0.033 A 
ATOM     28  C   UNL     1      69.985  17.586  11.795  0.00  0.00    +0.005 A 
ATOM     29  C   UNL     1      70.004  18.529  12.846  0.00  0.00    +0.013 A 
BRANCH  18  19
ATOM     19  C   UNL     1      71.002  15.708  10.378  0.00  0.00    +0.119 C 
BRANCH  19  20
ATOM     20  N   UNL     1      69.958  14.643  10.458  0.00  0.00    -0.302 NA
ATOM     21  C   UNL     1      69.983  13.914  11.805  0.00  0.00    +0.066 C 
ATOM     22  C   UNL     1      68.869  12.819  11.880  0.00  0.00    -0.064 C 
ATOM     23  N   UNL     1      69.051  11.832  10.726  0.00  0.00    +0.379 N 
ATOM     24  C   UNL     1      68.041  10.768  10.827  0.00  0.00    -0.096 C 
ATOM     25  H   UNL     1      70.053  11.358  10.840  0.00  0.00    -0.082 HD
ATOM     26  C   UNL     1      69.030  12.549   9.383  0.00  0.00    -0.064 C 
ATOM     27  C   UNL     1      70.121  13.654   9.330  0.00  0.00    +0.066 C 
ENDBRANCH  19  20
ENDBRANCH  18  19
ENDBRANCH  14  15
ENDBRANCH  12  13
TORSDOF 6
ENDMDL
MODEL 2
REMARK VINA RESULT:      -8.4      9.669     18.684
REMARK  Name = C:\Users\Docking\Desktop\test protocol\1iep_ligandH.pdb
REMARK  8 active torsions:
REMARK  status: ('A' for Active; 'I' for Inactive)
REMARK    1  A    between atoms: _5  and  _11
REMARK    2  A    between atoms: _19  and  _21
REMARK    3  A    between atoms: _22  and  _66
REMARK    4  A    between atoms: _27  and  _30
REMARK    5  A    between atoms: _32  and  _33
REMARK    6  A    between atoms: _38  and  _43
REMARK    7  A    between atoms: _43  and  _46
REMARK    8  A    between atoms: _53  and  _55
REMARK                            x       y       z     vdW  Elec       q    Type
REMARK                         _______ _______ _______ _____ _____    ______ ____
ROOT
ATOM     10  C   UNL     1      63.530   8.455  10.553  0.00  0.00    +0.038 A 
ATOM     11  C   UNL     1      64.626   9.352  10.493  0.00  0.00    +0.047 A 
ATOM     12  C   UNL     1      64.719  10.489  11.396  0.00  0.00    +0.035 A 
ATOM     32  C   UNL     1      63.678  10.679  12.351  0.00  0.00    +0.024 A 
ATOM     33  C   UNL     1      62.556   9.777  12.426  0.00  0.00    +0.007 A 
ATOM     34  C   UNL     1      62.458   8.656  11.536  0.00  0.00    -0.029 A 
ATOM     35  C   UNL     1      61.229   7.725  11.656  0.00  0.00    +0.045 C 
ENDROOT
BRANCH  10   9
ATOM      4  C   UNL     1      62.338   6.492   6.338  0.00  0.00    +0.077 A 
ATOM      5  C   UNL     1      61.716   7.702   5.884  0.00  0.00    +0.048 A 
ATOM      6  C   UNL     1      61.717   8.804   6.768  0.00  0.00    +0.116 A 
ATOM      7  N   UNL     1      62.301   8.693   8.011  0.00  0.00    -0.223 NA
ATOM      8  C   UNL     1      62.892   7.511   8.419  0.00  0.00    +0.220 A 
ATOM      9  N   UNL     1      63.492   7.380   9.662  0.00  0.00    -0.283 N 
ATOM     36  H   UNL     1      63.910   6.489   9.928  0.00  0.00    +0.155 HD
ATOM     37  N   UNL     1      62.902   6.444   7.594  0.00  0.00    -0.214 NA
BRANCH   4   3
ATOM      1  C   UNL     1      63.515   3.775   3.783  0.00  0.00    +0.020 A 
ATOM      2  C   UNL     1      63.482   4.999   4.549  0.00  0.00    +0.013 A 
ATOM      3  C   UNL     1      62.420   5.242   5.518  0.00  0.00    +0.019 A 
ATOM     38  C   UNL     1      61.401   4.218   5.689  0.00  0.00    +0.120 A 
ATOM     39  N   UNL     1      61.458   3.050   4.936  0.00  0.00    -0.263 NA
ATOM     40  C   UNL     1      62.473   2.805   3.999  0.00  0.00    +0.111 A 
ENDBRANCH   4   3
ENDBRANCH  10   9
BRANCH  12  13
ATOM     13  N   UNL     1      65.804  11.438  11.376  0.00  0.00    -0.281 N 
ATOM     14  C   UNL     1      67.139  11.200  11.092  0.00  0.00    +0.248 C 
ATOM     30  O   UNL     1      67.643  10.089  11.019  0.00  0.00    -0.270 OA
ATOM     31  H   UNL     1      65.558  12.403  11.599  0.00  0.00    +0.155 HD
BRANCH  14  15
ATOM     15  C   UNL     1      68.048  12.365  10.870  0.00  0.00    +0.037 A 
ATOM     16  C   UNL     1      68.076  13.496  11.801  0.00  0.00    +0.013 A 
ATOM     17  C   UNL     1      68.951  14.615  11.554  0.00  0.00    +0.005 A 
ATOM     18  C   UNL     1      69.807  14.607  10.370  0.00  0.00    -0.033 A 
ATOM     28  C   UNL     1      69.763  13.470   9.465  0.00  0.00    +0.005 A 
ATOM     29  C   UNL     1      68.906  12.372   9.704  0.00  0.00    +0.013 A 
BRANCH  18  19
ATOM     19  C   UNL     1      70.756  15.768  10.016  0.00  0.00    +0.119 C 
BRANCH  19  20
ATOM     20  N   UNL     1      72.075  15.413   9.414  0.00  0.00    -0.302 NA
ATOM     21  C   UNL     1      73.126  15.094  10.481  0.00  0.00    +0.066 C 
ATOM     22  C   UNL     1      74.494  14.703   9.833  0.00  0.00    -0.064 C 
ATOM     23  N   UNL     1      74.970  15.840   8.928  0.00  0.00    +0.379 N 
ATOM     24  C   UNL     1      76.284  15.500   8.362  0.00  0.00    -0.096 C 
ATOM     25  H   UNL     1      75.100  16.747   9.563  0.00  0.00    -0.082 HD
ATOM     26  C   UNL     1      73.930  16.165   7.865  0.00  0.00    -0.064 C 
ATOM     27  C   UNL     1      72.566  16.524   8.519  0.00  0.00    +0.066 C 
ENDBRANCH  19  20
ENDBRANCH  18  19
ENDBRANCH  14  15
ENDBRANCH  12  13
TORSDOF 6
ENDMDL
MODEL 3
REMARK VINA RESULT:      -8.3     10.095     14.666
REMARK  Name = C:\Users\Docking\Desktop\test protocol\1iep_ligandH.pdb
REMARK  8 active torsions:
REMARK  status: ('A' for Active; 'I' for Inactive)
REMARK    1  A    between atoms: _5  and  _11
REMARK    2  A    between atoms: _19  and  _21
REMARK    3  A    between atoms: _22  and  _66
REMARK    4  A    between atoms: _27  and  _30
REMARK    5  A    between atoms: _32  and  _33
REMARK    6  A    between atoms: _38  and  _43
REMARK    7  A    between atoms: _43  and  _46
REMARK    8  A    between atoms: _53  and  _55
REMARK                            x       y       z     vdW  Elec       q    Type
REMARK                         _______ _______ _______ _____ _____    ______ ____
ROOT
ATOM     10  C   UNL     1      69.225  14.128  11.007  0.00  0.00    +0.038 A 
ATOM     11  C   UNL     1      69.782  14.044   9.706  0.00  0.00    +0.047 A 
ATOM     12  C   UNL     1      71.198  14.283   9.476  0.00  0.00    +0.035 A 
ATOM     32  C   UNL     1      72.020  14.602  10.596  0.00  0.00    +0.024 A 
ATOM     33  C   UNL     1      71.470  14.692  11.926  0.00  0.00    +0.007 A 
ATOM     34  C   UNL     1      70.073  14.461  12.158  0.00  0.00    -0.029 A 
ATOM     35  C   UNL     1      69.537  14.578  13.604  0.00  0.00    +0.045 C 
ENDROOT
BRANCH  10   9
ATOM      4  C   UNL     1      65.460  11.176  11.387  0.00  0.00    +0.077 A 
ATOM      5  C   UNL     1      66.281  10.012  11.220  0.00  0.00    +0.048 A 
ATOM      6  C   UNL     1      67.666  10.216  11.032  0.00  0.00    +0.116 A 
ATOM      7  N   UNL     1      68.181  11.494  11.014  0.00  0.00    -0.223 NA
ATOM      8  C   UNL     1      67.361  12.596  11.176  0.00  0.00    +0.220 A 
ATOM      9  N   UNL     1      67.859  13.890  11.170  0.00  0.00    -0.283 N 
ATOM     36  H   UNL     1      67.220  14.676  11.286  0.00  0.00    +0.155 HD
ATOM     37  N   UNL     1      66.034  12.427  11.356  0.00  0.00    -0.214 NA
BRANCH   4   3
ATOM      1  C   UNL     1      61.645  10.447  10.918  0.00  0.00    +0.020 A 
ATOM      2  C   UNL     1      63.068  10.470  10.667  0.00  0.00    +0.013 A 
ATOM      3  C   UNL     1      63.978  11.124  11.598  0.00  0.00    +0.019 A 
ATOM     38  C   UNL     1      63.413  11.750  12.784  0.00  0.00    +0.120 A 
ATOM     39  N   UNL     1      62.039  11.713  12.999  0.00  0.00    -0.263 NA
ATOM     40  C   UNL     1      61.153  11.088  12.109  0.00  0.00    +0.111 A 
ENDBRANCH   4   3
ENDBRANCH  10   9
BRANCH  12  13
ATOM     13  N   UNL     1      71.818  14.220   8.176  0.00  0.00    -0.281 N 
ATOM     14  C   UNL     1      72.492  15.226   7.504  0.00  0.00    +0.248 C 
ATOM     30  O   UNL     1      72.478  16.404   7.830  0.00  0.00    -0.270 OA
ATOM     31  H   UNL     1      71.753  13.324   7.692  0.00  0.00    +0.155 HD
BRANCH  14  15
ATOM     15  C   UNL     1      73.283  14.877   6.285  0.00  0.00    +0.037 A 
ATOM     16  C   UNL     1      72.717  15.028   4.942  0.00  0.00    +0.013 A 
ATOM     17  C   UNL     1      73.496  14.668   3.784  0.00  0.00    +0.005 A 
ATOM     18  C   UNL     1      74.851  14.153   3.964  0.00  0.00    -0.033 A 
ATOM     28  C   UNL     1      75.390  14.018   5.307  0.00  0.00    +0.005 A 
ATOM     29  C   UNL     1      74.629  14.369   6.445  0.00  0.00    +0.013 A 
BRANCH  18  19
ATOM     19  C   UNL     1      75.746  13.724   2.787  0.00  0.00    +0.119 C 
BRANCH  19  20
ATOM     20  N   UNL     1      75.777  12.270   2.446  0.00  0.00    -0.302 NA
ATOM     21  C   UNL     1      74.471  11.564   2.819  0.00  0.00    +0.066 C 
ATOM     22  C   UNL     1      74.512  10.049   2.436  0.00  0.00    -0.064 C 
ATOM     23  N   UNL     1      75.704   9.383   3.127  0.00  0.00    +0.379 N 
ATOM     24  C   UNL     1      75.712   7.947   2.815  0.00  0.00    -0.096 C 
ATOM     25  H   UNL     1      75.559   9.490   4.227  0.00  0.00    -0.082 HD
ATOM     26  C   UNL     1      77.007  10.081   2.763  0.00  0.00    -0.064 C 
ATOM     27  C   UNL     1      76.944  11.592   3.122  0.00  0.00    +0.066 C 
ENDBRANCH  19  20
ENDBRANCH  18  19
ENDBRANCH  14  15
ENDBRANCH  12  13
TORSDOF 6
ENDMDL
MODEL 4
REMARK VINA RESULT:      -8.2      8.873     11.892
REMARK  Name = C:\Users\Docking\Desktop\test protocol\1iep_ligandH.pdb
REMARK  8 active torsions:
REMARK  status: ('A' for Active; 'I' for Inactive)
REMARK    1  A    between atoms: _5  and  _11
REMARK    2  A    between atoms: _19  and  _21
REMARK    3  A    between atoms: _22  and  _66
REMARK    4  A    between atoms: _27  and  _30
REMARK    5  A    between atoms: _32  and  _33
REMARK    6  A    between atoms: _38  and  _43
REMARK    7  A    between atoms: _43  and  _46
REMARK    8  A    between atoms: _53  and  _55
REMARK                            x       y       z     vdW  Elec       q    Type
REMARK                         _______ _______ _______ _____ _____    ______ ____
ROOT
ATOM     10  C   UNL     1      70.910  15.189  10.351  0.00  0.00    +0.038 A 
ATOM     11  C   UNL     1      70.029  14.079  10.414  0.00  0.00    +0.047 A 
ATOM     12  C   UNL     1      68.589  14.266  10.508  0.00  0.00    +0.035 A 
ATOM     32  C   UNL     1      68.081  15.597  10.533  0.00  0.00    +0.024 A 
ATOM     33  C   UNL     1      68.962  16.737  10.470  0.00  0.00    +0.007 A 
ATOM     34  C   UNL     1      70.383  16.559  10.380  0.00  0.00    -0.029 A 
ATOM     35  C   UNL     1      71.280  17.817  10.322  0.00  0.00    +0.045 C 
ENDROOT
BRANCH  10   9
ATOM      4  C   UNL     1      74.918  14.432   7.822  0.00  0.00    +0.077 A 
ATOM      5  C   UNL     1      74.212  14.487   6.575  0.00  0.00    +0.048 A 
ATOM      6  C   UNL     1      72.817  14.704   6.628  0.00  0.00    +0.116 A 
ATOM      7  N   UNL     1      72.186  14.855   7.843  0.00  0.00    -0.223 NA
ATOM      8  C   UNL     1      72.896  14.796   9.028  0.00  0.00    +0.220 A 
ATOM      9  N   UNL     1      72.283  14.952  10.262  0.00  0.00    -0.283 N 
ATOM     36  H   UNL     1      72.841  14.895  11.113  0.00  0.00    +0.155 HD
ATOM     37  N   UNL     1      74.229  14.587   9.004  0.00  0.00    -0.214 NA
BRANCH   4   3
ATOM      1  C   UNL     1      78.702  14.868   8.715  0.00  0.00    +0.020 A 
ATOM      2  C   UNL     1      77.282  15.127   8.640  0.00  0.00    +0.013 A 
ATOM      3  C   UNL     1      76.395  14.213   7.931  0.00  0.00    +0.019 A 
ATOM     38  C   UNL     1      76.981  13.037   7.305  0.00  0.00    +0.120 A 
ATOM     39  N   UNL     1      78.352  12.815   7.393  0.00  0.00    -0.263 NA
ATOM     40  C   UNL     1      79.215  13.688   8.071  0.00  0.00    +0.111 A 
ENDBRANCH   4   3
ENDBRANCH  10   9
BRANCH  12  13
ATOM     13  N   UNL     1      67.647  13.177  10.584  0.00  0.00    -0.281 N 
ATOM     14  C   UNL     1      67.370  12.364  11.671  0.00  0.00    +0.248 C 
ATOM     30  O   UNL     1      68.048  12.313  12.686  0.00  0.00    -0.270 OA
ATOM     31  H   UNL     1      67.119  12.982   9.733  0.00  0.00    +0.155 HD
BRANCH  14  15
ATOM     15  C   UNL     1      66.174  11.469  11.617  0.00  0.00    +0.037 A 
ATOM     16  C   UNL     1      64.815  12.012  11.680  0.00  0.00    +0.013 A 
ATOM     17  C   UNL     1      63.679  11.124  11.643  0.00  0.00    +0.005 A 
ATOM     18  C   UNL     1      63.899   9.684  11.541  0.00  0.00    -0.033 A 
ATOM     28  C   UNL     1      65.258   9.173  11.475  0.00  0.00    +0.005 A 
ATOM     29  C   UNL     1      66.374  10.039  11.512  0.00  0.00    +0.013 A 
BRANCH  18  19
ATOM     19  C   UNL     1      62.748   8.662  11.517  0.00  0.00    +0.119 C 
BRANCH  19  20
ATOM     20  N   UNL     1      62.517   7.921  10.240  0.00  0.00    -0.302 NA
ATOM     21  C   UNL     1      63.221   6.561  10.230  0.00  0.00    +0.066 C 
ATOM     22  C   UNL     1      62.951   5.791   8.896  0.00  0.00    -0.064 C 
ATOM     23  N   UNL     1      63.409   6.647   7.714  0.00  0.00    +0.379 N 
ATOM     24  C   UNL     1      63.209   5.902   6.462  0.00  0.00    -0.096 C 
ATOM     25  H   UNL     1      64.503   6.827   7.831  0.00  0.00    -0.082 HD
ATOM     26  C   UNL     1      62.716   8.002   7.719  0.00  0.00    -0.064 C 
ATOM     27  C   UNL     1      62.966   8.747   9.060  0.00  0.00    +0.066 C 
ENDBRANCH  19  20
ENDBRANCH  18  19
ENDBRANCH  14  15
ENDBRANCH  12  13
TORSDOF 6
ENDMDL
MODEL 5
REMARK VINA RESULT:      -8.2      8.718     11.737
REMARK  Name = C:\Users\Docking\Desktop\test protocol\1iep_ligandH.pdb
REMARK  8 active torsions:
REMARK  status: ('A' for Active; 'I' for Inactive)
REMARK    1  A    between atoms: _5  and  _11
REMARK    2  A    between atoms: _19  and  _21
REMARK    3  A    between atoms: _22  and  _66
REMARK    4  A    between atoms: _27  and  _30
REMARK    5  A    between atoms: _32  and  _33
REMARK    6  A    between atoms: _38  and  _43
REMARK    7  A    between atoms: _43  and  _46
REMARK    8  A    between atoms: _53  and  _55
REMARK                            x       y       z     vdW  Elec       q    Type
REMARK                         _______ _______ _______ _____ _____    ______ ____
ROOT
ATOM     10  C   UNL     1      71.096  15.469  10.621  0.00  0.00    +0.038 A 
ATOM     11  C   UNL     1      70.236  14.361  10.836  0.00  0.00    +0.047 A 
ATOM     12  C   UNL     1      68.800  14.540  10.977  0.00  0.00    +0.035 A 
ATOM     32  C   UNL     1      68.271  15.861  10.891  0.00  0.00    +0.024 A 
ATOM     33  C   UNL     1      69.130  16.998  10.674  0.00  0.00    +0.007 A 
ATOM     34  C   UNL     1      70.548  16.829  10.536  0.00  0.00    -0.029 A 
ATOM     35  C   UNL     1      71.422  18.085  10.312  0.00  0.00    +0.045 C 
ENDROOT
BRANCH  10   9
ATOM      4  C   UNL     1      74.985  14.412   8.014  0.00  0.00    +0.077 A 
ATOM      5  C   UNL     1      74.215  14.279   6.811  0.00  0.00    +0.048 A 
ATOM      6  C   UNL     1      72.820  14.483   6.907  0.00  0.00    +0.116 A 
ATOM      7  N   UNL     1      72.249  14.797   8.121  0.00  0.00    -0.223 NA
ATOM      8  C   UNL     1      73.020  14.917   9.263  0.00  0.00    +0.220 A 
ATOM      9  N   UNL     1      72.467  15.240  10.493  0.00  0.00    -0.283 N 
ATOM     36  H   UNL     1      73.069  15.312  11.313  0.00  0.00    +0.155 HD
ATOM     37  N   UNL     1      74.354  14.725   9.198  0.00  0.00    -0.214 NA
BRANCH   4   3
ATOM      1  C   UNL     1      78.779  14.917   8.823  0.00  0.00    +0.020 A 
ATOM      2  C   UNL     1      77.351  15.139   8.796  0.00  0.00    +0.013 A 
ATOM      3  C   UNL     1      76.470  14.230   8.074  0.00  0.00    +0.019 A 
ATOM     38  C   UNL     1      77.069  13.098   7.384  0.00  0.00    +0.120 A 
ATOM     39  N   UNL     1      78.447  12.911   7.426  0.00  0.00    -0.263 NA
ATOM     40  C   UNL     1      79.306  13.780   8.116  0.00  0.00    +0.111 A 
ENDBRANCH   4   3
ENDBRANCH  10   9
BRANCH  12  13
ATOM     13  N   UNL     1      67.879  13.454  11.204  0.00  0.00    -0.281 N 
ATOM     14  C   UNL     1      67.908  12.183  10.654  0.00  0.00    +0.248 C 
ATOM     30  O   UNL     1      68.614  11.853   9.712  0.00  0.00    -0.270 OA
ATOM     31  H   UNL     1      67.112  13.645  11.849  0.00  0.00    +0.155 HD
BRANCH  14  15
ATOM     15  C   UNL     1      67.014  11.129  11.222  0.00  0.00    +0.037 A 
ATOM     16  C   UNL     1      67.515   9.783  11.514  0.00  0.00    +0.013 A 
ATOM     17  C   UNL     1      66.626   8.781  12.047  0.00  0.00    +0.005 A 
ATOM     18  C   UNL     1      65.227   9.121  12.291  0.00  0.00    -0.033 A 
ATOM     28  C   UNL     1      64.757  10.465  11.997  0.00  0.00    +0.005 A 
ATOM     29  C   UNL     1      65.625  11.450  11.475  0.00  0.00    +0.013 A 
BRANCH  18  19
ATOM     19  C   UNL     1      64.203   8.108  12.837  0.00  0.00    +0.119 C 
BRANCH  19  20
ATOM     20  N   UNL     1      63.668   7.093  11.881  0.00  0.00    -0.302 NA
ATOM     21  C   UNL     1      64.614   5.900  11.722  0.00  0.00    +0.066 C 
ATOM     22  C   UNL     1      64.029   4.837  10.735  0.00  0.00    -0.064 C 
ATOM     23  N   UNL     1      63.757   5.497   9.382  0.00  0.00    +0.379 N 
ATOM     24  C   UNL     1      63.261   4.488   8.436  0.00  0.00    -0.096 C 
ATOM     25  H   UNL     1      64.728   5.880   8.992  0.00  0.00    -0.082 HD
ATOM     26  C   UNL     1      62.819   6.686   9.532  0.00  0.00    -0.064 C 
ATOM     27  C   UNL     1      63.396   7.722  10.537  0.00  0.00    +0.066 C 
ENDBRANCH  19  20
ENDBRANCH  18  19
ENDBRANCH  14  15
ENDBRANCH  12  13
TORSDOF 6
ENDMDL
