MODEL 1
REMARK VINA RESULT:      -8.9      0.000      0.000
REMARK  Name = C:\Users\Docking\Desktop\test protocol\1iep_ligandH.pdb
REMARK  8 active torsions:
REMARK  status: ('A' for Active; 'I' for Inactive)
REMARK    1  A    between atoms: _5  and  _11
REMARK    2  A    between atoms: _19  and  _21
REMARK    3  A    between atoms: _22  and  _66
REMARK    4  A    between atoms: _27  and  _30
REMARK    5  A    between atoms: _32  and  _33
REMARK    6  A    between atoms: _38  and  _43
REMARK    7  A    between atoms: _43  and  _46
REMARK    8  A    between atoms: _53  and  _55
REMARK                            x       y       z     vdW  Elec       q    Type
REMARK                         _______ _______ _______ _____ _____    ______ ____
ROOT
ATOM     10  C   UNL     1      -6.082 -16.016  10.895  0.00  0.00    +0.038 A 
ATOM     11  C   UNL     1      -5.304 -14.871  11.203  0.00  0.00    +0.047 A 
ATOM     12  C   UNL     1      -5.158 -13.782  10.250  0.00  0.00    +0.035 A 
ATOM     32  C   UNL     1      -5.820 -13.892   8.992  0.00  0.00    +0.024 A 
ATOM     33  C   UNL     1      -6.613 -15.049   8.662  0.00  0.00    +0.007 A 
ATOM     34  C   UNL     1      -6.759 -16.128   9.597  0.00  0.00    -0.029 A 
ATOM     35  C   UNL     1      -7.616 -17.348   9.187  0.00  0.00    +0.045 C 
ENDROOT
BRANCH  10   9
ATOM      4  C   UNL     1      -8.342 -18.193  14.527  0.00  0.00    +0.077 A 
ATOM      5  C   UNL     1      -9.385 -17.208  14.546  0.00  0.00    +0.048 A 
ATOM      6  C   UNL     1      -9.298 -16.153  13.609  0.00  0.00    +0.116 A 
ATOM      7  N   UNL     1      -8.244 -16.098  12.724  0.00  0.00    -0.223 NA
ATOM      8  C   UNL     1      -7.254 -17.063  12.734  0.00  0.00    +0.220 A 
ATOM      9  N   UNL     1      -6.188 -17.032  11.848  0.00  0.00    -0.283 N 
ATOM     36  H   UNL     1      -5.474 -17.759  11.892  0.00  0.00    +0.155 HD
ATOM     37  N   UNL     1      -7.312 -18.080  13.619  0.00  0.00    -0.214 NA
BRANCH   4   3
ATOM      1  C   UNL     1      -9.241 -21.504  16.405  0.00  0.00    +0.020 A 
ATOM      2  C   UNL     1      -9.335 -20.388  15.493  0.00  0.00    +0.013 A 
ATOM      3  C   UNL     1      -8.294 -19.368  15.453  0.00  0.00    +0.019 A 
ATOM     38  C   UNL     1      -7.161 -19.510  16.355  0.00  0.00    +0.120 A 
ATOM     39  N   UNL     1      -7.098 -20.595  17.224  0.00  0.00    -0.263 NA
ATOM     40  C   UNL     1      -8.095 -21.581  17.273  0.00  0.00    +0.111 A 
ENDBRANCH   4   3
ENDBRANCH  10   9
BRANCH  12  13
ATOM     13  N   UNL     1      -4.375 -12.598  10.504  0.00  0.00    -0.281 N 
ATOM     14  C   UNL     1      -4.618 -11.599  11.432  0.00  0.00    +0.248 C 
ATOM     30  O   UNL     1      -5.668 -11.464  12.043  0.00  0.00    -0.270 OA
ATOM     31  H   UNL     1      -3.540 -12.482   9.929  0.00  0.00    +0.155 HD
BRANCH  14  15
ATOM     15  C   UNL     1      -3.545 -10.597  11.713  0.00  0.00    +0.037 A 
ATOM     16  C   UNL     1      -2.202 -11.016  12.122  0.00  0.00    +0.013 A 
ATOM     17  C   UNL     1      -1.191 -10.029  12.403  0.00  0.00    +0.005 A 
ATOM     18  C   UNL     1      -1.518  -8.611  12.273  0.00  0.00    -0.033 A 
ATOM     28  C   UNL     1      -2.857  -8.223  11.860  0.00  0.00    +0.005 A 
ATOM     29  C   UNL     1      -3.851  -9.188  11.585  0.00  0.00    +0.013 A 
BRANCH  18  19
ATOM     19  C   UNL     1      -0.508  -7.488  12.573  0.00  0.00    +0.119 C 
BRANCH  19  20
ATOM     20  N   UNL     1      -0.008  -6.690  11.414  0.00  0.00    -0.302 NA
ATOM     21  C   UNL     1      -0.931  -5.513  11.086  0.00  0.00    +0.066 C 
ATOM     22  C   UNL     1      -0.381  -4.676   9.885  0.00  0.00    -0.064 C 
ATOM     23  N   UNL     1      -0.212  -5.587   8.668  0.00  0.00    +0.379 N 
ATOM     24  C   UNL     1       0.249  -4.792   7.520  0.00  0.00    -0.096 C 
ATOM     25  H   UNL     1      -1.216  -5.999   8.412  0.00  0.00    -0.082 HD
ATOM     26  C   UNL     1       0.702  -6.762   8.985  0.00  0.00    -0.064 C 
ATOM     27  C   UNL     1       0.162  -7.569  10.199  0.00  0.00    +0.066 C 
ENDBRANCH  19  20
ENDBRANCH  18  19
ENDBRANCH  14  15
ENDBRANCH  12  13
TORSDOF 6
ENDMDL
MODEL 2
REMARK VINA RESULT:      -8.8      5.273     10.074
REMARK  Name = C:\Users\Docking\Desktop\test protocol\1iep_ligandH.pdb
REMARK  8 active torsions:
REMARK  status: ('A' for Active; 'I' for Inactive)
REMARK    1  A    between atoms: _5  and  _11
REMARK    2  A    between atoms: _19  and  _21
REMARK    3  A    between atoms: _22  and  _66
REMARK    4  A    between atoms: _27  and  _30
REMARK    5  A    between atoms: _32  and  _33
REMARK    6  A    between atoms: _38  and  _43
REMARK    7  A    between atoms: _43  and  _46
REMARK    8  A    between atoms: _53  and  _55
REMARK                            x       y       z     vdW  Elec       q    Type
REMARK                         _______ _______ _______ _____ _____    ______ ____
ROOT
ATOM     10  C   UNL     1     -10.042 -23.516  16.363  0.00  0.00    +0.038 A 
ATOM     11  C   UNL     1      -9.841 -22.399  15.512  0.00  0.00    +0.047 A 
ATOM     12  C   UNL     1      -9.369 -21.128  16.039  0.00  0.00    +0.035 A 
ATOM     32  C   UNL     1      -9.111 -21.030  17.437  0.00  0.00    +0.024 A 
ATOM     33  C   UNL     1      -9.311 -22.155  18.316  0.00  0.00    +0.007 A 
ATOM     34  C   UNL     1      -9.778 -23.411  17.803  0.00  0.00    -0.029 A 
ATOM     35  C   UNL     1      -9.981 -24.581  18.793  0.00  0.00    +0.045 C 
ENDROOT
BRANCH  10   9
ATOM      4  C   UNL     1     -13.530 -26.638  15.302  0.00  0.00    +0.077 A 
ATOM      5  C   UNL     1     -14.529 -25.829  15.939  0.00  0.00    +0.048 A 
ATOM      6  C   UNL     1     -14.103 -24.620  16.534  0.00  0.00    +0.116 A 
ATOM      7  N   UNL     1     -12.774 -24.258  16.489  0.00  0.00    -0.223 NA
ATOM      8  C   UNL     1     -11.836 -25.062  15.868  0.00  0.00    +0.220 A 
ATOM      9  N   UNL     1     -10.496 -24.713  15.804  0.00  0.00    -0.283 N 
ATOM     36  H   UNL     1      -9.834 -25.337  15.343  0.00  0.00    +0.155 HD
ATOM     37  N   UNL     1     -12.218 -26.222  15.294  0.00  0.00    -0.214 NA
BRANCH   4   3
ATOM      1  C   UNL     1     -15.009 -30.164  14.475  0.00  0.00    +0.020 A 
ATOM      2  C   UNL     1     -14.759 -28.920  15.168  0.00  0.00    +0.013 A 
ATOM      3  C   UNL     1     -13.825 -27.941  14.627  0.00  0.00    +0.019 A 
ATOM     38  C   UNL     1     -13.155 -28.252  13.373  0.00  0.00    +0.120 A 
ATOM     39  N   UNL     1     -13.415 -29.458  12.729  0.00  0.00    -0.263 NA
ATOM     40  C   UNL     1     -14.310 -30.409  13.241  0.00  0.00    +0.111 A 
ENDBRANCH   4   3
ENDBRANCH  10   9
BRANCH  12  13
ATOM     13  N   UNL     1      -9.154 -19.957  15.225  0.00  0.00    -0.281 N 
ATOM     14  C   UNL     1      -7.968 -19.274  15.012  0.00  0.00    +0.248 C 
ATOM     30  O   UNL     1      -6.948 -19.442  15.663  0.00  0.00    -0.270 OA
ATOM     31  H   UNL     1      -9.976 -19.587  14.747  0.00  0.00    +0.155 HD
BRANCH  14  15
ATOM     15  C   UNL     1      -7.911 -18.246  13.929  0.00  0.00    +0.037 A 
ATOM     16  C   UNL     1      -6.666 -17.970  13.207  0.00  0.00    +0.013 A 
ATOM     17  C   UNL     1      -6.635 -16.961  12.178  0.00  0.00    +0.005 A 
ATOM     18  C   UNL     1      -7.854 -16.221  11.864  0.00  0.00    -0.033 A 
ATOM     28  C   UNL     1      -9.077 -16.518  12.591  0.00  0.00    +0.005 A 
ATOM     29  C   UNL     1      -9.111 -17.506  13.601  0.00  0.00    +0.013 A 
BRANCH  18  19
ATOM     19  C   UNL     1      -7.908 -15.113  10.796  0.00  0.00    +0.119 C 
BRANCH  19  20
ATOM     20  N   UNL     1      -6.800 -14.112  10.793  0.00  0.00    -0.302 NA
ATOM     21  C   UNL     1      -6.732 -13.326  12.106  0.00  0.00    +0.066 C 
ATOM     22  C   UNL     1      -5.553 -12.299  12.095  0.00  0.00    -0.064 C 
ATOM     23  N   UNL     1      -5.717 -11.352  10.905  0.00  0.00    +0.379 N 
ATOM     24  C   UNL     1      -4.642 -10.349  10.925  0.00  0.00    -0.096 C 
ATOM     25  H   UNL     1      -6.684 -10.814  11.033  0.00  0.00    -0.082 HD
ATOM     26  C   UNL     1      -5.788 -12.125   9.595  0.00  0.00    -0.064 C 
ATOM     27  C   UNL     1      -6.944 -13.163   9.628  0.00  0.00    +0.066 C 
ENDBRANCH  19  20
ENDBRANCH  18  19
ENDBRANCH  14  15
ENDBRANCH  12  13
TORSDOF 6
ENDMDL
MODEL 3
REMARK VINA RESULT:      -8.7      4.010      5.928
REMARK  Name = C:\Users\Docking\Desktop\test protocol\1iep_ligandH.pdb
REMARK  8 active torsions:
REMARK  status: ('A' for Active; 'I' for Inactive)
REMARK    1  A    between atoms: _5  and  _11
REMARK    2  A    between atoms: _19  and  _21
REMARK    3  A    between atoms: _22  and  _66
REMARK    4  A    between atoms: _27  and  _30
REMARK    5  A    between atoms: _32  and  _33
REMARK    6  A    between atoms: _38  and  _43
REMARK    7  A    between atoms: _43  and  _46
REMARK    8  A    between atoms: _53  and  _55
REMARK                            x       y       z     vdW  Elec       q    Type
REMARK                         _______ _______ _______ _____ _____    ______ ____
ROOT
ATOM     10  C   UNL     1      -7.778 -14.709   9.704  0.00  0.00    +0.038 A 
ATOM     11  C   UNL     1      -6.997 -13.570  10.029  0.00  0.00    +0.047 A 
ATOM     12  C   UNL     1      -5.547 -13.593   9.912  0.00  0.00    +0.035 A 
ATOM     32  C   UNL     1      -4.925 -14.792   9.458  0.00  0.00    +0.024 A 
ATOM     33  C   UNL     1      -5.703 -15.959   9.125  0.00  0.00    +0.007 A 
ATOM     34  C   UNL     1      -7.133 -15.943   9.241  0.00  0.00    -0.029 A 
ATOM     35  C   UNL     1      -7.916 -17.226   8.876  0.00  0.00    +0.045 C 
ENDROOT
BRANCH  10   9
ATOM      4  C   UNL     1     -12.163 -13.958   7.904  0.00  0.00    +0.077 A 
ATOM      5  C   UNL     1     -11.642 -13.670   6.598  0.00  0.00    +0.048 A 
ATOM      6  C   UNL     1     -10.240 -13.718   6.434  0.00  0.00    +0.116 A 
ATOM      7  N   UNL     1      -9.428 -14.033   7.502  0.00  0.00    -0.223 NA
ATOM      8  C   UNL     1      -9.963 -14.304   8.749  0.00  0.00    +0.220 A 
ATOM      9  N   UNL     1      -9.166 -14.631   9.835  0.00  0.00    -0.283 N 
ATOM     36  H   UNL     1      -9.598 -14.817  10.740  0.00  0.00    +0.155 HD
ATOM     37  N   UNL     1     -11.299 -14.263   8.932  0.00  0.00    -0.214 NA
BRANCH   4   3
ATOM      1  C   UNL     1     -15.692 -14.980   9.246  0.00  0.00    +0.020 A 
ATOM      2  C   UNL     1     -14.279 -15.037   8.951  0.00  0.00    +0.013 A 
ATOM      3  C   UNL     1     -13.623 -13.950   8.235  0.00  0.00    +0.019 A 
ATOM     38  C   UNL     1     -14.432 -12.810   7.829  0.00  0.00    +0.120 A 
ATOM     39  N   UNL     1     -15.791 -12.784   8.126  0.00  0.00    -0.263 NA
ATOM     40  C   UNL     1     -16.433 -13.824   8.813  0.00  0.00    +0.111 A 
ENDBRANCH   4   3
ENDBRANCH  10   9
BRANCH  12  13
ATOM     13  N   UNL     1      -4.702 -12.470  10.235  0.00  0.00    -0.281 N 
ATOM     14  C   UNL     1      -4.770 -11.645  11.346  0.00  0.00    +0.248 C 
ATOM     30  O   UNL     1      -5.708 -11.615  12.129  0.00  0.00    -0.270 OA
ATOM     31  H   UNL     1      -3.964 -12.258   9.564  0.00  0.00    +0.155 HD
BRANCH  14  15
ATOM     15  C   UNL     1      -3.640 -10.706  11.618  0.00  0.00    +0.037 A 
ATOM     16  C   UNL     1      -2.302 -11.203  11.951  0.00  0.00    +0.013 A 
ATOM     17  C   UNL     1      -1.234 -10.276  12.226  0.00  0.00    +0.005 A 
ATOM     18  C   UNL     1      -1.498  -8.840  12.167  0.00  0.00    -0.033 A 
ATOM     28  C   UNL     1      -2.833  -8.374  11.830  0.00  0.00    +0.005 A 
ATOM     29  C   UNL     1      -3.883  -9.280  11.561  0.00  0.00    +0.013 A 
BRANCH  18  19
ATOM     19  C   UNL     1      -0.423  -7.779  12.466  0.00  0.00    +0.119 C 
BRANCH  19  20
ATOM     20  N   UNL     1       0.067  -6.960  11.318  0.00  0.00    -0.302 NA
ATOM     21  C   UNL     1      -0.816  -5.735  11.067  0.00  0.00    +0.066 C 
ATOM     22  C   UNL     1      -0.276  -4.877   9.876  0.00  0.00    -0.064 C 
ATOM     23  N   UNL     1      -0.188  -5.749   8.622  0.00  0.00    +0.379 N 
ATOM     24  C   UNL     1       0.264  -4.931   7.487  0.00  0.00    -0.096 C 
ATOM     25  H   UNL     1      -1.217  -6.110   8.390  0.00  0.00    -0.082 HD
ATOM     26  C   UNL     1       0.686  -6.971   8.864  0.00  0.00    -0.064 C 
ATOM     27  C   UNL     1       0.157  -7.800  10.068  0.00  0.00    +0.066 C 
ENDBRANCH  19  20
ENDBRANCH  18  19
ENDBRANCH  14  15
ENDBRANCH  12  13
TORSDOF 6
ENDMDL
MODEL 4
REMARK VINA RESULT:      -8.7      1.324      1.877
REMARK  Name = C:\Users\Docking\Desktop\test protocol\1iep_ligandH.pdb
REMARK  8 active torsions:
REMARK  status: ('A' for Active; 'I' for Inactive)
REMARK    1  A    between atoms: _5  and  _11
REMARK    2  A    between atoms: _19  and  _21
REMARK    3  A    between atoms: _22  and  _66
REMARK    4  A    between atoms: _27  and  _30
REMARK    5  A    between atoms: _32  and  _33
REMARK    6  A    between atoms: _38  and  _43
REMARK    7  A    between atoms: _43  and  _46
REMARK    8  A    between atoms: _53  and  _55
REMARK                            x       y       z     vdW  Elec       q    Type
REMARK                         _______ _______ _______ _____ _____    ______ ____
ROOT
ATOM     10  C   UNL     1      -7.029 -15.103  10.923  0.00  0.00    +0.038 A 
ATOM     11  C   UNL     1      -6.429 -13.921  11.427  0.00  0.00    +0.047 A 
ATOM     12  C   UNL     1      -5.491 -13.152  10.624  0.00  0.00    +0.035 A 
ATOM     32  C   UNL     1      -5.188 -13.615   9.311  0.00  0.00    +0.024 A 
ATOM     33  C   UNL     1      -5.788 -14.815   8.783  0.00  0.00    +0.007 A 
ATOM     34  C   UNL     1      -6.712 -15.579   9.571  0.00  0.00    -0.029 A 
ATOM     35  C   UNL     1      -7.319 -16.862   8.957  0.00  0.00    +0.045 C 
ENDROOT
BRANCH  10   9
ATOM      4  C   UNL     1      -8.004 -18.310  14.358  0.00  0.00    +0.077 A 
ATOM      5  C   UNL     1      -6.618 -18.640  14.527  0.00  0.00    +0.048 A 
ATOM      6  C   UNL     1      -5.687 -17.967  13.705  0.00  0.00    +0.116 A 
ATOM      7  N   UNL     1      -6.120 -17.035  12.787  0.00  0.00    -0.223 NA
ATOM      8  C   UNL     1      -7.465 -16.742  12.649  0.00  0.00    +0.220 A 
ATOM      9  N   UNL     1      -7.922 -15.803  11.737  0.00  0.00    -0.283 N 
ATOM     36  H   UNL     1      -8.923 -15.620  11.660  0.00  0.00    +0.155 HD
ATOM     37  N   UNL     1      -8.374 -17.372  13.421  0.00  0.00    -0.214 NA
BRANCH   4   3
ATOM      1  C   UNL     1     -10.229 -20.904  16.261  0.00  0.00    +0.020 A 
ATOM      2  C   UNL     1      -9.140 -20.352  15.489  0.00  0.00    +0.013 A 
ATOM      3  C   UNL     1      -9.108 -18.934  15.155  0.00  0.00    +0.019 A 
ATOM     38  C   UNL     1     -10.201 -18.095  15.622  0.00  0.00    +0.120 A 
ATOM     39  N   UNL     1     -11.238 -18.655  16.363  0.00  0.00    -0.263 NA
ATOM     40  C   UNL     1     -11.280 -20.018  16.689  0.00  0.00    +0.111 A 
ENDBRANCH   4   3
ENDBRANCH  10   9
BRANCH  12  13
ATOM     13  N   UNL     1      -4.845 -11.948  11.086  0.00  0.00    -0.281 N 
ATOM     14  C   UNL     1      -3.874 -11.825  12.066  0.00  0.00    +0.248 C 
ATOM     30  O   UNL     1      -3.565 -12.711  12.848  0.00  0.00    -0.270 OA
ATOM     31  H   UNL     1      -5.139 -11.082  10.635  0.00  0.00    +0.155 HD
BRANCH  14  15
ATOM     15  C   UNL     1      -3.151 -10.524  12.207  0.00  0.00    +0.037 A 
ATOM     16  C   UNL     1      -3.766  -9.263  11.783  0.00  0.00    +0.013 A 
ATOM     17  C   UNL     1      -3.040  -8.025  11.914  0.00  0.00    +0.005 A 
ATOM     18  C   UNL     1      -1.690  -8.042  12.474  0.00  0.00    -0.033 A 
ATOM     28  C   UNL     1      -1.107  -9.306  12.891  0.00  0.00    +0.005 A 
ATOM     29  C   UNL     1      -1.815 -10.522  12.763  0.00  0.00    +0.013 A 
BRANCH  18  19
ATOM     19  C   UNL     1      -0.835  -6.771  12.631  0.00  0.00    +0.119 C 
BRANCH  19  20
ATOM     20  N   UNL     1      -0.241  -6.188  11.391  0.00  0.00    -0.302 NA
ATOM     21  C   UNL     1      -1.095  -5.052  10.823  0.00  0.00    +0.066 C 
ATOM     22  C   UNL     1      -0.448  -4.439   9.539  0.00  0.00    -0.064 C 
ATOM     23  N   UNL     1      -0.250  -5.541   8.496  0.00  0.00    +0.379 N 
ATOM     24  C   UNL     1       0.305  -4.958   7.266  0.00  0.00    -0.096 C 
ATOM     25  H   UNL     1      -1.254  -5.958   8.250  0.00  0.00    -0.082 HD
ATOM     26  C   UNL     1       0.597  -6.676   9.053  0.00  0.00    -0.064 C 
ATOM     27  C   UNL     1      -0.040  -7.258  10.346  0.00  0.00    +0.066 C 
ENDBRANCH  19  20
ENDBRANCH  18  19
ENDBRANCH  14  15
ENDBRANCH  12  13
TORSDOF 6
ENDMDL
MODEL 5
REMARK VINA RESULT:      -8.7      3.429      5.150
REMARK  Name = C:\Users\Docking\Desktop\test protocol\1iep_ligandH.pdb
REMARK  8 active torsions:
REMARK  status: ('A' for Active; 'I' for Inactive)
REMARK    1  A    between atoms: _5  and  _11
REMARK    2  A    between atoms: _19  and  _21
REMARK    3  A    between atoms: _22  and  _66
REMARK    4  A    between atoms: _27  and  _30
REMARK    5  A    between atoms: _32  and  _33
REMARK    6  A    between atoms: _38  and  _43
REMARK    7  A    between atoms: _43  and  _46
REMARK    8  A    between atoms: _53  and  _55
REMARK                            x       y       z     vdW  Elec       q    Type
REMARK                         _______ _______ _______ _____ _____    ______ ____
ROOT
ATOM     10  C   UNL     1      -7.823 -14.406   9.228  0.00  0.00    +0.038 A 
ATOM     11  C   UNL     1      -7.044 -13.277   9.588  0.00  0.00    +0.047 A 
ATOM     12  C   UNL     1      -5.604 -13.382   9.767  0.00  0.00    +0.035 A 
ATOM     32  C   UNL     1      -4.990 -14.653   9.569  0.00  0.00    +0.024 A 
ATOM     33  C   UNL     1      -5.766 -15.812   9.203  0.00  0.00    +0.007 A 
ATOM     34  C   UNL     1      -7.187 -15.714   9.028  0.00  0.00    -0.029 A 
ATOM     35  C   UNL     1      -7.971 -16.991   8.642  0.00  0.00    +0.045 C 
ENDROOT
BRANCH  10   9
ATOM      4  C   UNL     1     -12.303 -14.355  10.948  0.00  0.00    +0.077 A 
ATOM      5  C   UNL     1     -11.863 -14.698  12.270  0.00  0.00    +0.048 A 
ATOM      6  C   UNL     1     -10.476 -14.887  12.463  0.00  0.00    +0.116 A 
ATOM      7  N   UNL     1      -9.603 -14.739  11.407  0.00  0.00    -0.223 NA
ATOM      8  C   UNL     1     -10.061 -14.409  10.144  0.00  0.00    +0.220 A 
ATOM      9  N   UNL     1      -9.201 -14.248   9.069  0.00  0.00    -0.283 N 
ATOM     36  H   UNL     1      -9.579 -14.012   8.152  0.00  0.00    +0.155 HD
ATOM     37  N   UNL     1     -11.381 -14.226   9.933  0.00  0.00    -0.214 NA
BRANCH   4   3
ATOM      1  C   UNL     1     -15.700 -14.280   9.010  0.00  0.00    +0.020 A 
ATOM      2  C   UNL     1     -14.309 -14.530   9.310  0.00  0.00    +0.013 A 
ATOM      3  C   UNL     1     -13.737 -14.121  10.586  0.00  0.00    +0.019 A 
ATOM     38  C   UNL     1     -14.606 -13.456  11.545  0.00  0.00    +0.120 A 
ATOM     39  N   UNL     1     -15.942 -13.227  11.228  0.00  0.00    -0.263 NA
ATOM     40  C   UNL     1     -16.503 -13.616  10.002  0.00  0.00    +0.111 A 
ENDBRANCH   4   3
ENDBRANCH  10   9
BRANCH  12  13
ATOM     13  N   UNL     1      -4.763 -12.273  10.141  0.00  0.00    -0.281 N 
ATOM     14  C   UNL     1      -4.773 -11.557  11.326  0.00  0.00    +0.248 C 
ATOM     30  O   UNL     1      -5.657 -11.626  12.167  0.00  0.00    -0.270 OA
ATOM     31  H   UNL     1      -4.075 -11.979   9.446  0.00  0.00    +0.155 HD
BRANCH  14  15
ATOM     15  C   UNL     1      -3.647 -10.617  11.613  0.00  0.00    +0.037 A 
ATOM     16  C   UNL     1      -2.310 -11.114  11.950  0.00  0.00    +0.013 A 
ATOM     17  C   UNL     1      -1.245 -10.187  12.239  0.00  0.00    +0.005 A 
ATOM     18  C   UNL     1      -1.513  -8.751  12.191  0.00  0.00    -0.033 A 
ATOM     28  C   UNL     1      -2.847  -8.286  11.848  0.00  0.00    +0.005 A 
ATOM     29  C   UNL     1      -3.893  -9.192  11.566  0.00  0.00    +0.013 A 
BRANCH  18  19
ATOM     19  C   UNL     1      -0.443  -7.690  12.505  0.00  0.00    +0.119 C 
BRANCH  19  20
ATOM     20  N   UNL     1       0.045  -6.852  11.369  0.00  0.00    -0.302 NA
ATOM     21  C   UNL     1      -0.867  -5.650  11.108  0.00  0.00    +0.066 C 
ATOM     22  C   UNL     1      -0.331  -4.773   9.931  0.00  0.00    -0.064 C 
ATOM     23  N   UNL     1      -0.200  -5.635   8.674  0.00  0.00    +0.379 N 
ATOM     24  C   UNL     1       0.249  -4.800   7.551  0.00  0.00    -0.096 C 
ATOM     25  H   UNL     1      -1.215  -6.023   8.424  0.00  0.00    -0.082 HD
ATOM     26  C   UNL     1       0.703  -6.835   8.925  0.00  0.00    -0.064 C 
ATOM     27  C   UNL     1       0.177  -7.684  10.116  0.00  0.00    +0.066 C 
ENDBRANCH  19  20
ENDBRANCH  18  19
ENDBRANCH  14  15
ENDBRANCH  12  13
TORSDOF 6
ENDMDL
