MODEL 1
REMARK VINA RESULT:      -9.0      0.000      0.000
REMARK  Name = C:\Users\Docking\Desktop\test protocol\1iep_ligandH.pdb
REMARK  8 active torsions:
REMARK  status: ('A' for Active; 'I' for Inactive)
REMARK    1  A    between atoms: _5  and  _11
REMARK    2  A    between atoms: _19  and  _21
REMARK    3  A    between atoms: _22  and  _66
REMARK    4  A    between atoms: _27  and  _30
REMARK    5  A    between atoms: _32  and  _33
REMARK    6  A    between atoms: _38  and  _43
REMARK    7  A    between atoms: _43  and  _46
REMARK    8  A    between atoms: _53  and  _55
REMARK                            x       y       z     vdW  Elec       q    Type
REMARK                         _______ _______ _______ _____ _____    ______ ____
ROOT
ATOM     10  C   UNL     1      -8.059 -14.939  10.405  0.00  0.00    +0.038 A 
ATOM     11  C   UNL     1      -8.655 -14.372   9.250  0.00  0.00    +0.047 A 
ATOM     12  C   UNL     1      -9.341 -15.203   8.272  0.00  0.00    +0.035 A 
ATOM     32  C   UNL     1      -9.404 -16.607   8.505  0.00  0.00    +0.024 A 
ATOM     33  C   UNL     1      -8.803 -17.201   9.673  0.00  0.00    +0.007 A 
ATOM     34  C   UNL     1      -8.122 -16.387  10.639  0.00  0.00    -0.029 A 
ATOM     35  C   UNL     1      -7.491 -17.078  11.870  0.00  0.00    +0.045 C 
ENDROOT
BRANCH  10   9
ATOM      4  C   UNL     1      -4.218 -12.479  11.898  0.00  0.00    +0.077 A 
ATOM      5  C   UNL     1      -3.423 -12.936  10.795  0.00  0.00    +0.048 A 
ATOM      6  C   UNL     1      -4.038 -13.809   9.869  0.00  0.00    +0.116 A 
ATOM      7  N   UNL     1      -5.350 -14.189  10.044  0.00  0.00    -0.223 NA
ATOM      8  C   UNL     1      -6.089 -13.732  11.120  0.00  0.00    +0.220 A 
ATOM      9  N   UNL     1      -7.413 -14.095  11.311  0.00  0.00    -0.283 N 
ATOM     36  H   UNL     1      -7.921 -13.742  12.122  0.00  0.00    +0.155 HD
ATOM     37  N   UNL     1      -5.524 -12.899  12.019  0.00  0.00    -0.214 NA
BRANCH   4   3
ATOM      1  C   UNL     1      -2.808 -11.071  15.264  0.00  0.00    +0.020 A 
ATOM      2  C   UNL     1      -3.290 -12.008  14.277  0.00  0.00    +0.013 A 
ATOM      3  C   UNL     1      -3.711 -11.551  12.958  0.00  0.00    +0.019 A 
ATOM     38  C   UNL     1      -3.629 -10.128  12.668  0.00  0.00    +0.120 A 
ATOM     39  N   UNL     1      -3.162  -9.248  13.640  0.00  0.00    -0.263 NA
ATOM     40  C   UNL     1      -2.756  -9.676  14.913  0.00  0.00    +0.111 A 
ENDBRANCH   4   3
ENDBRANCH  10   9
BRANCH  12  13
ATOM     13  N   UNL     1      -9.958 -14.684   7.076  0.00  0.00    -0.281 N 
ATOM     14  C   UNL     1     -11.102 -13.910   6.975  0.00  0.00    +0.248 C 
ATOM     30  O   UNL     1     -11.893 -13.723   7.888  0.00  0.00    -0.270 OA
ATOM     31  H   UNL     1      -9.494 -14.916   6.198  0.00  0.00    +0.155 HD
BRANCH  14  15
ATOM     15  C   UNL     1     -11.421 -13.261   5.668  0.00  0.00    +0.037 A 
ATOM     16  C   UNL     1     -12.018 -14.022   4.567  0.00  0.00    +0.013 A 
ATOM     17  C   UNL     1     -12.301 -13.375   3.310  0.00  0.00    +0.005 A 
ATOM     18  C   UNL     1     -11.987 -11.958   3.148  0.00  0.00    -0.033 A 
ATOM     28  C   UNL     1     -11.400 -11.225   4.257  0.00  0.00    +0.005 A 
ATOM     29  C   UNL     1     -11.121 -11.856   5.490  0.00  0.00    +0.013 A 
BRANCH  18  19
ATOM     19  C   UNL     1     -12.235 -11.192   1.835  0.00  0.00    +0.119 C 
BRANCH  19  20
ATOM     20  N   UNL     1     -12.030  -9.713   1.857  0.00  0.00    -0.302 NA
ATOM     21  C   UNL     1     -13.349  -8.952   2.021  0.00  0.00    +0.066 C 
ATOM     22  C   UNL     1     -13.113  -7.407   2.065  0.00  0.00    -0.064 C 
ATOM     23  N   UNL     1     -12.390  -6.968   0.791  0.00  0.00    +0.379 N 
ATOM     24  C   UNL     1     -12.218  -5.508   0.802  0.00  0.00    -0.096 C 
ATOM     25  H   UNL     1     -13.044  -7.225  -0.075  0.00  0.00    -0.082 HD
ATOM     26  C   UNL     1     -11.078  -7.721   0.618  0.00  0.00    -0.064 C 
ATOM     27  C   UNL     1     -11.321  -9.257   0.605  0.00  0.00    +0.066 C 
ENDBRANCH  19  20
ENDBRANCH  18  19
ENDBRANCH  14  15
ENDBRANCH  12  13
TORSDOF 6
ENDMDL
MODEL 2
REMARK VINA RESULT:      -9.0      1.666      2.640
REMARK  Name = C:\Users\Docking\Desktop\test protocol\1iep_ligandH.pdb
REMARK  8 active torsions:
REMARK  status: ('A' for Active; 'I' for Inactive)
REMARK    1  A    between atoms: _5  and  _11
REMARK    2  A    between atoms: _19  and  _21
REMARK    3  A    between atoms: _22  and  _66
REMARK    4  A    between atoms: _27  and  _30
REMARK    5  A    between atoms: _32  and  _33
REMARK    6  A    between atoms: _38  and  _43
REMARK    7  A    between atoms: _43  and  _46
REMARK    8  A    between atoms: _53  and  _55
REMARK                            x       y       z     vdW  Elec       q    Type
REMARK                         _______ _______ _______ _____ _____    ______ ____
ROOT
ATOM     10  C   UNL     1      -6.677 -15.266  11.347  0.00  0.00    +0.038 A 
ATOM     11  C   UNL     1      -7.589 -14.924  10.317  0.00  0.00    +0.047 A 
ATOM     12  C   UNL     1      -8.395 -15.939   9.657  0.00  0.00    +0.035 A 
ATOM     32  C   UNL     1      -8.248 -17.294  10.074  0.00  0.00    +0.024 A 
ATOM     33  C   UNL     1      -7.325 -17.660  11.120  0.00  0.00    +0.007 A 
ATOM     34  C   UNL     1      -6.526 -16.663  11.772  0.00  0.00    -0.029 A 
ATOM     35  C   UNL     1      -5.548 -17.114  12.882  0.00  0.00    +0.045 C 
ENDROOT
BRANCH  10   9
ATOM      4  C   UNL     1      -4.602 -10.938  11.287  0.00  0.00    +0.077 A 
ATOM      5  C   UNL     1      -5.023 -10.691   9.938  0.00  0.00    +0.048 A 
ATOM      6  C   UNL     1      -5.765 -11.705   9.292  0.00  0.00    +0.116 A 
ATOM      7  N   UNL     1      -6.059 -12.876   9.957  0.00  0.00    -0.223 NA
ATOM      8  C   UNL     1      -5.637 -13.084  11.257  0.00  0.00    +0.220 A 
ATOM      9  N   UNL     1      -5.928 -14.251  11.947  0.00  0.00    -0.283 N 
ATOM     36  H   UNL     1      -5.592 -14.369  12.902  0.00  0.00    +0.155 HD
ATOM     37  N   UNL     1      -4.926 -12.131  11.894  0.00  0.00    -0.214 NA
BRANCH   4   3
ATOM      1  C   UNL     1      -2.669  -7.739  12.439  0.00  0.00    +0.020 A 
ATOM      2  C   UNL     1      -3.430  -8.645  11.610  0.00  0.00    +0.013 A 
ATOM      3  C   UNL     1      -3.814  -9.962  12.103  0.00  0.00    +0.019 A 
ATOM     38  C   UNL     1      -3.410 -10.333  13.450  0.00  0.00    +0.120 A 
ATOM     39  N   UNL     1      -2.676  -9.441  14.225  0.00  0.00    -0.263 NA
ATOM     40  C   UNL     1      -2.299  -8.172  13.761  0.00  0.00    +0.111 A 
ENDBRANCH   4   3
ENDBRANCH  10   9
BRANCH  12  13
ATOM     13  N   UNL     1      -9.331 -15.653   8.599  0.00  0.00    -0.281 N 
ATOM     14  C   UNL     1     -10.478 -14.879   8.663  0.00  0.00    +0.248 C 
ATOM     30  O   UNL     1     -10.990 -14.487   9.701  0.00  0.00    -0.270 OA
ATOM     31  H   UNL     1      -9.123 -16.071   7.692  0.00  0.00    +0.155 HD
BRANCH  14  15
ATOM     15  C   UNL     1     -11.164 -14.496   7.391  0.00  0.00    +0.037 A 
ATOM     16  C   UNL     1     -12.173 -13.434   7.361  0.00  0.00    +0.013 A 
ATOM     17  C   UNL     1     -12.831 -13.096   6.124  0.00  0.00    +0.005 A 
ATOM     18  C   UNL     1     -12.480 -13.821   4.905  0.00  0.00    -0.033 A 
ATOM     28  C   UNL     1     -11.472 -14.867   4.963  0.00  0.00    +0.005 A 
ATOM     29  C   UNL     1     -10.826 -15.201   6.173  0.00  0.00    +0.013 A 
BRANCH  18  19
ATOM     19  C   UNL     1     -13.147 -13.542   3.545  0.00  0.00    +0.119 C 
BRANCH  19  20
ATOM     20  N   UNL     1     -12.437 -12.616   2.613  0.00  0.00    -0.302 NA
ATOM     21  C   UNL     1     -11.647 -11.540   3.364  0.00  0.00    +0.066 C 
ATOM     22  C   UNL     1     -10.893 -10.593   2.374  0.00  0.00    -0.064 C 
ATOM     23  N   UNL     1     -11.900  -9.956   1.415  0.00  0.00    +0.379 N 
ATOM     24  C   UNL     1     -11.202  -9.021   0.521  0.00  0.00    -0.096 C 
ATOM     25  H   UNL     1     -12.621  -9.365   2.026  0.00  0.00    -0.082 HD
ATOM     26  C   UNL     1     -12.692 -11.019   0.667  0.00  0.00    -0.064 C 
ATOM     27  C   UNL     1     -13.413 -11.972   1.660  0.00  0.00    +0.066 C 
ENDBRANCH  19  20
ENDBRANCH  18  19
ENDBRANCH  14  15
ENDBRANCH  12  13
TORSDOF 6
ENDMDL
MODEL 3
REMARK VINA RESULT:      -9.0      1.010      1.292
REMARK  Name = C:\Users\Docking\Desktop\test protocol\1iep_ligandH.pdb
REMARK  8 active torsions:
REMARK  status: ('A' for Active; 'I' for Inactive)
REMARK    1  A    between atoms: _5  and  _11
REMARK    2  A    between atoms: _19  and  _21
REMARK    3  A    between atoms: _22  and  _66
REMARK    4  A    between atoms: _27  and  _30
REMARK    5  A    between atoms: _32  and  _33
REMARK    6  A    between atoms: _38  and  _43
REMARK    7  A    between atoms: _43  and  _46
REMARK    8  A    between atoms: _53  and  _55
REMARK                            x       y       z     vdW  Elec       q    Type
REMARK                         _______ _______ _______ _____ _____    ______ ____
ROOT
ATOM     10  C   UNL     1      -7.589 -15.207  10.457  0.00  0.00    +0.038 A 
ATOM     11  C   UNL     1      -8.235 -14.640   9.329  0.00  0.00    +0.047 A 
ATOM     12  C   UNL     1      -9.101 -15.441   8.477  0.00  0.00    +0.035 A 
ATOM     32  C   UNL     1      -9.287 -16.816   8.804  0.00  0.00    +0.024 A 
ATOM     33  C   UNL     1      -8.636 -17.409   9.946  0.00  0.00    +0.007 A 
ATOM     34  C   UNL     1      -7.779 -16.624  10.789  0.00  0.00    -0.029 A 
ATOM     35  C   UNL     1      -7.102 -17.314  11.996  0.00  0.00    +0.045 C 
ENDROOT
BRANCH  10   9
ATOM      4  C   UNL     1      -4.883 -11.296  11.103  0.00  0.00    +0.077 A 
ATOM      5  C   UNL     1      -5.099 -10.852   9.756  0.00  0.00    +0.048 A 
ATOM      6  C   UNL     1      -5.906 -11.662   8.927  0.00  0.00    +0.116 A 
ATOM      7  N   UNL     1      -6.453 -12.828   9.419  0.00  0.00    -0.223 NA
ATOM      8  C   UNL     1      -6.223 -13.228  10.723  0.00  0.00    +0.220 A 
ATOM      9  N   UNL     1      -6.769 -14.392  11.241  0.00  0.00    -0.283 N 
ATOM     36  H   UNL     1      -6.570 -14.657  12.206  0.00  0.00    +0.155 HD
ATOM     37  N   UNL     1      -5.454 -12.472  11.534  0.00  0.00    -0.214 NA
BRANCH   4   3
ATOM      1  C   UNL     1      -2.907  -8.463  12.939  0.00  0.00    +0.020 A 
ATOM      2  C   UNL     1      -3.708  -9.140  11.946  0.00  0.00    +0.013 A 
ATOM      3  C   UNL     1      -4.056 -10.547  12.101  0.00  0.00    +0.019 A 
ATOM     38  C   UNL     1      -3.574 -11.245  13.283  0.00  0.00    +0.120 A 
ATOM     39  N   UNL     1      -2.803 -10.567  14.223  0.00  0.00    -0.263 NA
ATOM     40  C   UNL     1      -2.461  -9.214  14.083  0.00  0.00    +0.111 A 
ENDBRANCH   4   3
ENDBRANCH  10   9
BRANCH  12  13
ATOM     13  N   UNL     1      -9.777 -14.922   7.314  0.00  0.00    -0.281 N 
ATOM     14  C   UNL     1     -10.918 -14.137   7.272  0.00  0.00    +0.248 C 
ATOM     30  O   UNL     1     -11.656 -13.939   8.226  0.00  0.00    -0.270 OA
ATOM     31  H   UNL     1      -9.365 -15.163   6.412  0.00  0.00    +0.155 HD
BRANCH  14  15
ATOM     15  C   UNL     1     -11.303 -13.492   5.980  0.00  0.00    +0.037 A 
ATOM     16  C   UNL     1     -11.900 -14.268   4.890  0.00  0.00    +0.013 A 
ATOM     17  C   UNL     1     -12.246 -13.624   3.648  0.00  0.00    +0.005 A 
ATOM     18  C   UNL     1     -11.998 -12.193   3.490  0.00  0.00    -0.033 A 
ATOM     28  C   UNL     1     -11.409 -11.446   4.589  0.00  0.00    +0.005 A 
ATOM     29  C   UNL     1     -11.068 -12.074   5.808  0.00  0.00    +0.013 A 
BRANCH  18  19
ATOM     19  C   UNL     1     -12.316 -11.427   2.193  0.00  0.00    +0.119 C 
BRANCH  19  20
ATOM     20  N   UNL     1     -12.130  -9.945   2.210  0.00  0.00    -0.302 NA
ATOM     21  C   UNL     1     -13.459  -9.201   2.369  0.00  0.00    +0.066 C 
ATOM     22  C   UNL     1     -13.243  -7.653   2.407  0.00  0.00    -0.064 C 
ATOM     23  N   UNL     1     -12.523  -7.210   1.133  0.00  0.00    +0.379 N 
ATOM     24  C   UNL     1     -12.370  -5.747   1.139  0.00  0.00    -0.096 C 
ATOM     25  H   UNL     1     -13.171  -7.478   0.267  0.00  0.00    -0.082 HD
ATOM     26  C   UNL     1     -11.201  -7.947   0.965  0.00  0.00    -0.064 C 
ATOM     27  C   UNL     1     -11.424  -9.485   0.958  0.00  0.00    +0.066 C 
ENDBRANCH  19  20
ENDBRANCH  18  19
ENDBRANCH  14  15
ENDBRANCH  12  13
TORSDOF 6
ENDMDL
MODEL 4
REMARK VINA RESULT:      -8.7      3.381     11.015
REMARK  Name = C:\Users\Docking\Desktop\test protocol\1iep_ligandH.pdb
REMARK  8 active torsions:
REMARK  status: ('A' for Active; 'I' for Inactive)
REMARK    1  A    between atoms: _5  and  _11
REMARK    2  A    between atoms: _19  and  _21
REMARK    3  A    between atoms: _22  and  _66
REMARK    4  A    between atoms: _27  and  _30
REMARK    5  A    between atoms: _32  and  _33
REMARK    6  A    between atoms: _38  and  _43
REMARK    7  A    between atoms: _43  and  _46
REMARK    8  A    between atoms: _53  and  _55
REMARK                            x       y       z     vdW  Elec       q    Type
REMARK                         _______ _______ _______ _____ _____    ______ ____
ROOT
ATOM     10  C   UNL     1      -7.687 -14.914   9.393  0.00  0.00    +0.038 A 
ATOM     11  C   UNL     1      -6.891 -13.860   9.907  0.00  0.00    +0.047 A 
ATOM     12  C   UNL     1      -6.043 -14.057  11.073  0.00  0.00    +0.035 A 
ATOM     32  C   UNL     1      -6.029 -15.342  11.688  0.00  0.00    +0.024 A 
ATOM     33  C   UNL     1      -6.833 -16.425  11.179  0.00  0.00    +0.007 A 
ATOM     34  C   UNL     1      -7.673 -16.236  10.031  0.00  0.00    -0.029 A 
ATOM     35  C   UNL     1      -8.519 -17.431   9.533  0.00  0.00    +0.045 C 
ENDROOT
BRANCH  10   9
ATOM      4  C   UNL     1     -11.866 -13.747   7.341  0.00  0.00    +0.077 A 
ATOM      5  C   UNL     1     -12.528 -13.642   8.610  0.00  0.00    +0.048 A 
ATOM      6  C   UNL     1     -11.759 -13.903   9.766  0.00  0.00    +0.116 A 
ATOM      7  N   UNL     1     -10.428 -14.243   9.650  0.00  0.00    -0.223 NA
ATOM      8  C   UNL     1      -9.822 -14.337   8.411  0.00  0.00    +0.220 A 
ATOM      9  N   UNL     1      -8.483 -14.669   8.271  0.00  0.00    -0.283 N 
ATOM     36  H   UNL     1      -8.075 -14.736   7.339  0.00  0.00    +0.155 HD
ATOM     37  N   UNL     1     -10.535 -14.094   7.292  0.00  0.00    -0.214 NA
BRANCH   4   3
ATOM      1  C   UNL     1     -12.884 -13.940   3.569  0.00  0.00    +0.020 A 
ATOM      2  C   UNL     1     -12.199 -14.218   4.810  0.00  0.00    +0.013 A 
ATOM      3  C   UNL     1     -12.544 -13.498   6.029  0.00  0.00    +0.019 A 
ATOM     38  C   UNL     1     -13.595 -12.494   5.958  0.00  0.00    +0.120 A 
ATOM     39  N   UNL     1     -14.237 -12.246   4.749  0.00  0.00    -0.263 NA
ATOM     40  C   UNL     1     -13.912 -12.932   3.569  0.00  0.00    +0.111 A 
ENDBRANCH   4   3
ENDBRANCH  10   9
BRANCH  12  13
ATOM     13  N   UNL     1      -5.219 -13.021  11.645  0.00  0.00    -0.281 N 
ATOM     14  C   UNL     1      -3.980 -12.580  11.209  0.00  0.00    +0.248 C 
ATOM     30  O   UNL     1      -3.293 -13.159  10.381  0.00  0.00    -0.270 OA
ATOM     31  H   UNL     1      -5.594 -12.557  12.472  0.00  0.00    +0.155 HD
BRANCH  14  15
ATOM     15  C   UNL     1      -3.417 -11.322  11.786  0.00  0.00    +0.037 A 
ATOM     16  C   UNL     1      -2.186 -11.334  12.580  0.00  0.00    +0.013 A 
ATOM     17  C   UNL     1      -1.674 -10.109  13.140  0.00  0.00    +0.005 A 
ATOM     18  C   UNL     1      -2.393  -8.859  12.906  0.00  0.00    -0.033 A 
ATOM     28  C   UNL     1      -3.610  -8.874  12.110  0.00  0.00    +0.005 A 
ATOM     29  C   UNL     1      -4.115 -10.074  11.561  0.00  0.00    +0.013 A 
BRANCH  18  19
ATOM     19  C   UNL     1      -1.931  -7.507  13.482  0.00  0.00    +0.119 C 
BRANCH  19  20
ATOM     20  N   UNL     1      -1.353  -6.518  12.525  0.00  0.00    -0.302 NA
ATOM     21  C   UNL     1      -2.423  -5.591  11.940  0.00  0.00    +0.066 C 
ATOM     22  C   UNL     1      -1.798  -4.548  10.958  0.00  0.00    -0.064 C 
ATOM     23  N   UNL     1      -1.051  -5.284   9.845  0.00  0.00    +0.379 N 
ATOM     24  C   UNL     1      -0.510  -4.307   8.888  0.00  0.00    -0.096 C 
ATOM     25  H   UNL     1      -1.791  -5.916   9.301  0.00  0.00    -0.082 HD
ATOM     26  C   UNL     1       0.013  -6.209  10.417  0.00  0.00    -0.064 C 
ATOM     27  C   UNL     1      -0.614  -7.223  11.414  0.00  0.00    +0.066 C 
ENDBRANCH  19  20
ENDBRANCH  18  19
ENDBRANCH  14  15
ENDBRANCH  12  13
TORSDOF 6
ENDMDL
MODEL 5
REMARK VINA RESULT:      -8.6      1.140      1.565
REMARK  Name = C:\Users\Docking\Desktop\test protocol\1iep_ligandH.pdb
REMARK  8 active torsions:
REMARK  status: ('A' for Active; 'I' for Inactive)
REMARK    1  A    between atoms: _5  and  _11
REMARK    2  A    between atoms: _19  and  _21
REMARK    3  A    between atoms: _22  and  _66
REMARK    4  A    between atoms: _27  and  _30
REMARK    5  A    between atoms: _32  and  _33
REMARK    6  A    between atoms: _38  and  _43
REMARK    7  A    between atoms: _43  and  _46
REMARK    8  A    between atoms: _53  and  _55
REMARK                            x       y       z     vdW  Elec       q    Type
REMARK                         _______ _______ _______ _____ _____    ______ ____
ROOT
ATOM     10  C   UNL     1      -8.552 -15.198   9.649  0.00  0.00    +0.038 A 
ATOM     11  C   UNL     1      -9.050 -14.405   8.584  0.00  0.00    +0.047 A 
ATOM     12  C   UNL     1      -9.735 -15.009   7.452  0.00  0.00    +0.035 A 
ATOM     32  C   UNL     1      -9.899 -16.425   7.439  0.00  0.00    +0.024 A 
ATOM     33  C   UNL     1      -9.398 -17.247   8.513  0.00  0.00    +0.007 A 
ATOM     34  C   UNL     1      -8.719 -16.656   9.630  0.00  0.00    -0.029 A 
ATOM     35  C   UNL     1      -8.197 -17.586  10.750  0.00  0.00    +0.045 C 
ENDROOT
BRANCH  10   9
ATOM      4  C   UNL     1      -4.641 -13.319  11.702  0.00  0.00    +0.077 A 
ATOM      5  C   UNL     1      -3.818 -13.651  10.575  0.00  0.00    +0.048 A 
ATOM      6  C   UNL     1      -4.438 -14.311   9.490  0.00  0.00    +0.116 A 
ATOM      7  N   UNL     1      -5.782 -14.612   9.540  0.00  0.00    -0.223 NA
ATOM      8  C   UNL     1      -6.547 -14.279  10.643  0.00  0.00    +0.220 A 
ATOM      9  N   UNL     1      -7.902 -14.565  10.710  0.00  0.00    -0.283 N 
ATOM     36  H   UNL     1      -8.429 -14.310  11.545  0.00  0.00    +0.155 HD
ATOM     37  N   UNL     1      -5.978 -13.650  11.692  0.00  0.00    -0.214 NA
BRANCH   4   3
ATOM      1  C   UNL     1      -3.786 -12.436  15.415  0.00  0.00    +0.020 A 
ATOM      2  C   UNL     1      -4.296 -13.153  14.269  0.00  0.00    +0.013 A 
ATOM      3  C   UNL     1      -4.133 -12.618  12.923  0.00  0.00    +0.019 A 
ATOM     38  C   UNL     1      -3.442 -11.347  12.770  0.00  0.00    +0.120 A 
ATOM     39  N   UNL     1      -2.962 -10.678  13.892  0.00  0.00    -0.263 NA
ATOM     40  C   UNL     1      -3.115 -11.182  15.192  0.00  0.00    +0.111 A 
ENDBRANCH   4   3
ENDBRANCH  10   9
BRANCH  12  13
ATOM     13  N   UNL     1     -10.255 -14.256   6.338  0.00  0.00    -0.281 N 
ATOM     14  C   UNL     1     -11.347 -13.403   6.322  0.00  0.00    +0.248 C 
ATOM     30  O   UNL     1     -12.175 -13.324   7.217  0.00  0.00    -0.270 OA
ATOM     31  H   UNL     1      -9.758 -14.364   5.454  0.00  0.00    +0.155 HD
BRANCH  14  15
ATOM     15  C   UNL     1     -11.557 -12.521   5.133  0.00  0.00    +0.037 A 
ATOM     16  C   UNL     1     -11.138 -11.117   5.145  0.00  0.00    +0.013 A 
ATOM     17  C   UNL     1     -11.368 -10.284   3.992  0.00  0.00    +0.005 A 
ATOM     18  C   UNL     1     -12.019 -10.854   2.815  0.00  0.00    -0.033 A 
ATOM     28  C   UNL     1     -12.419 -12.252   2.828  0.00  0.00    +0.005 A 
ATOM     29  C   UNL     1     -12.197 -13.071   3.957  0.00  0.00    +0.013 A 
BRANCH  18  19
ATOM     19  C   UNL     1     -12.323 -10.034   1.547  0.00  0.00    +0.119 C 
BRANCH  19  20
ATOM     20  N   UNL     1     -11.390  -8.917   1.216  0.00  0.00    -0.302 NA
ATOM     21  C   UNL     1     -12.004  -7.546   1.517  0.00  0.00    +0.066 C 
ATOM     22  C   UNL     1     -11.005  -6.390   1.186  0.00  0.00    -0.064 C 
ATOM     23  N   UNL     1     -10.588  -6.485  -0.283  0.00  0.00    +0.379 N 
ATOM     24  C   UNL     1      -9.695  -5.365  -0.613  0.00  0.00    -0.096 C 
ATOM     25  H   UNL     1     -11.508  -6.378  -0.903  0.00  0.00    -0.082 HD
ATOM     26  C   UNL     1      -9.979  -7.845  -0.592  0.00  0.00    -0.064 C 
ATOM     27  C   UNL     1     -10.968  -8.989  -0.231  0.00  0.00    +0.066 C 
ENDBRANCH  19  20
ENDBRANCH  18  19
ENDBRANCH  14  15
ENDBRANCH  12  13
TORSDOF 6
ENDMDL
