MODEL 1
REMARK VINA RESULT:      -8.2      0.000      0.000
REMARK  Name = C:\Users\Docking\Desktop\test protocol\1iep_ligandH.pdb
REMARK  8 active torsions:
REMARK  status: ('A' for Active; 'I' for Inactive)
REMARK    1  A    between atoms: _5  and  _11
REMARK    2  A    between atoms: _19  and  _21
REMARK    3  A    between atoms: _22  and  _66
REMARK    4  A    between atoms: _27  and  _30
REMARK    5  A    between atoms: _32  and  _33
REMARK    6  A    between atoms: _38  and  _43
REMARK    7  A    between atoms: _43  and  _46
REMARK    8  A    between atoms: _53  and  _55
REMARK                            x       y       z     vdW  Elec       q    Type
REMARK                         _______ _______ _______ _____ _____    ______ ____
ROOT
ATOM     10  C   UNL     1     -10.021 -23.488  16.338  0.00  0.00    +0.038 A 
ATOM     11  C   UNL     1      -9.859 -22.375  15.474  0.00  0.00    +0.047 A 
ATOM     12  C   UNL     1      -9.271 -21.133  15.950  0.00  0.00    +0.035 A 
ATOM     32  C   UNL     1      -8.856 -21.060  17.312  0.00  0.00    +0.024 A 
ATOM     33  C   UNL     1      -9.015 -22.181  18.204  0.00  0.00    +0.007 A 
ATOM     34  C   UNL     1      -9.596 -23.408  17.741  0.00  0.00    -0.029 A 
ATOM     35  C   UNL     1      -9.748 -24.576  18.744  0.00  0.00    +0.045 C 
ENDROOT
BRANCH  10   9
ATOM      4  C   UNL     1     -13.763 -26.407  15.620  0.00  0.00    +0.077 A 
ATOM      5  C   UNL     1     -14.651 -25.544  16.344  0.00  0.00    +0.048 A 
ATOM      6  C   UNL     1     -14.104 -24.362  16.892  0.00  0.00    +0.116 A 
ATOM      7  N   UNL     1     -12.767 -24.075  16.722  0.00  0.00    -0.223 NA
ATOM      8  C   UNL     1     -11.938 -24.930  16.019  0.00  0.00    +0.220 A 
ATOM      9  N   UNL     1     -10.592 -24.657  15.829  0.00  0.00    -0.283 N 
ATOM     36  H   UNL     1     -10.012 -25.317  15.311  0.00  0.00    +0.155 HD
ATOM     37  N   UNL     1     -12.436 -26.065  15.487  0.00  0.00    -0.214 NA
BRANCH   4   3
ATOM      1  C   UNL     1     -15.368 -29.922  15.013  0.00  0.00    +0.020 A 
ATOM      2  C   UNL     1     -14.979 -28.700  15.678  0.00  0.00    +0.013 A 
ATOM      3  C   UNL     1     -14.193 -27.690  14.980  0.00  0.00    +0.019 A 
ATOM     38  C   UNL     1     -13.815 -27.950  13.598  0.00  0.00    +0.120 A 
ATOM     39  N   UNL     1     -14.204 -29.137  12.985  0.00  0.00    -0.263 NA
ATOM     40  C   UNL     1     -14.958 -30.116  13.647  0.00  0.00    +0.111 A 
ENDBRANCH   4   3
ENDBRANCH  10   9
BRANCH  12  13
ATOM     13  N   UNL     1      -9.089 -19.967  15.121  0.00  0.00    -0.281 N 
ATOM     14  C   UNL     1      -7.899 -19.351  14.768  0.00  0.00    +0.248 C 
ATOM     30  O   UNL     1      -6.819 -19.584  15.289  0.00  0.00    -0.270 OA
ATOM     31  H   UNL     1      -9.940 -19.545  14.749  0.00  0.00    +0.155 HD
BRANCH  14  15
ATOM     15  C   UNL     1      -7.915 -18.315  13.691  0.00  0.00    +0.037 A 
ATOM     16  C   UNL     1      -9.080 -17.451  13.484  0.00  0.00    +0.013 A 
ATOM     17  C   UNL     1      -9.075 -16.471  12.427  0.00  0.00    +0.005 A 
ATOM     18  C   UNL     1      -7.899 -16.350  11.568  0.00  0.00    -0.033 A 
ATOM     28  C   UNL     1      -6.756 -17.217  11.798  0.00  0.00    +0.005 A 
ATOM     29  C   UNL     1      -6.757 -18.179  12.833  0.00  0.00    +0.013 A 
BRANCH  18  19
ATOM     19  C   UNL     1      -7.815 -15.348  10.402  0.00  0.00    +0.119 C 
BRANCH  19  20
ATOM     20  N   UNL     1      -6.745 -14.308  10.470  0.00  0.00    -0.302 NA
ATOM     21  C   UNL     1      -6.739 -13.578  11.816  0.00  0.00    +0.066 C 
ATOM     22  C   UNL     1      -5.599 -12.510  11.879  0.00  0.00    -0.064 C 
ATOM     23  N   UNL     1      -5.769 -11.518  10.726  0.00  0.00    +0.379 N 
ATOM     24  C   UNL     1      -4.734 -10.479  10.816  0.00  0.00    -0.096 C 
ATOM     25  H   UNL     1      -6.760 -11.021  10.851  0.00  0.00    -0.082 HD
ATOM     26  C   UNL     1      -5.780 -12.236   9.384  0.00  0.00    -0.064 C 
ATOM     27  C   UNL     1      -6.897 -13.316   9.343  0.00  0.00    +0.066 C 
ENDBRANCH  19  20
ENDBRANCH  18  19
ENDBRANCH  14  15
ENDBRANCH  12  13
TORSDOF 6
ENDMDL
MODEL 2
REMARK VINA RESULT:      -8.1      8.567     11.616
REMARK  Name = C:\Users\Docking\Desktop\test protocol\1iep_ligandH.pdb
REMARK  8 active torsions:
REMARK  status: ('A' for Active; 'I' for Inactive)
REMARK    1  A    between atoms: _5  and  _11
REMARK    2  A    between atoms: _19  and  _21
REMARK    3  A    between atoms: _22  and  _66
REMARK    4  A    between atoms: _27  and  _30
REMARK    5  A    between atoms: _32  and  _33
REMARK    6  A    between atoms: _38  and  _43
REMARK    7  A    between atoms: _43  and  _46
REMARK    8  A    between atoms: _53  and  _55
REMARK                            x       y       z     vdW  Elec       q    Type
REMARK                         _______ _______ _______ _____ _____    ______ ____
ROOT
ATOM     10  C   UNL     1      -7.996 -15.173  11.007  0.00  0.00    +0.038 A 
ATOM     11  C   UNL     1      -7.120 -14.098  11.304  0.00  0.00    +0.047 A 
ATOM     12  C   UNL     1      -5.699 -14.322  11.520  0.00  0.00    +0.035 A 
ATOM     32  C   UNL     1      -5.203 -15.655  11.424  0.00  0.00    +0.024 A 
ATOM     33  C   UNL     1      -6.079 -16.760  11.124  0.00  0.00    +0.007 A 
ATOM     34  C   UNL     1      -7.482 -16.545  10.912  0.00  0.00    -0.029 A 
ATOM     35  C   UNL     1      -8.376 -17.768  10.599  0.00  0.00    +0.045 C 
ENDROOT
BRANCH  10   9
ATOM      4  C   UNL     1     -11.730 -14.111   8.184  0.00  0.00    +0.077 A 
ATOM      5  C   UNL     1     -10.906 -14.070   7.010  0.00  0.00    +0.048 A 
ATOM      6  C   UNL     1      -9.526 -14.320   7.177  0.00  0.00    +0.116 A 
ATOM      7  N   UNL     1      -9.017 -14.591   8.429  0.00  0.00    -0.223 NA
ATOM      8  C   UNL     1      -9.839 -14.622   9.540  0.00  0.00    +0.220 A 
ATOM      9  N   UNL     1      -9.351 -14.900  10.808  0.00  0.00    -0.283 N 
ATOM     36  H   UNL     1      -9.988 -14.906  11.604  0.00  0.00    +0.155 HD
ATOM     37  N   UNL     1     -11.161 -14.385   9.408  0.00  0.00    -0.214 NA
BRANCH   4   3
ATOM      1  C   UNL     1     -15.578 -14.482   8.779  0.00  0.00    +0.020 A 
ATOM      2  C   UNL     1     -14.161 -14.760   8.822  0.00  0.00    +0.013 A 
ATOM      3  C   UNL     1     -13.207 -13.871   8.170  0.00  0.00    +0.019 A 
ATOM     38  C   UNL     1     -13.725 -12.700   7.478  0.00  0.00    +0.120 A 
ATOM     39  N   UNL     1     -15.095 -12.459   7.452  0.00  0.00    -0.263 NA
ATOM     40  C   UNL     1     -16.022 -13.308   8.074  0.00  0.00    +0.111 A 
ENDBRANCH   4   3
ENDBRANCH  10   9
BRANCH  12  13
ATOM     13  N   UNL     1      -4.763 -13.270  11.833  0.00  0.00    -0.281 N 
ATOM     14  C   UNL     1      -4.317 -12.253  11.005  0.00  0.00    +0.248 C 
ATOM     30  O   UNL     1      -4.494 -12.218   9.797  0.00  0.00    -0.270 OA
ATOM     31  H   UNL     1      -4.384 -13.277  12.780  0.00  0.00    +0.155 HD
BRANCH  14  15
ATOM     15  C   UNL     1      -3.551 -11.118  11.604  0.00  0.00    +0.037 A 
ATOM     16  C   UNL     1      -2.247 -11.331  12.236  0.00  0.00    +0.013 A 
ATOM     17  C   UNL     1      -1.537 -10.221  12.821  0.00  0.00    +0.005 A 
ATOM     18  C   UNL     1      -2.131  -8.887  12.776  0.00  0.00    -0.033 A 
ATOM     28  C   UNL     1      -3.424  -8.704  12.139  0.00  0.00    +0.005 A 
ATOM     29  C   UNL     1      -4.123  -9.789  11.565  0.00  0.00    +0.013 A 
BRANCH  18  19
ATOM     19  C   UNL     1      -1.454  -7.649  13.394  0.00  0.00    +0.119 C 
BRANCH  19  20
ATOM     20  N   UNL     1      -0.961  -6.599  12.454  0.00  0.00    -0.302 NA
ATOM     21  C   UNL     1      -2.080  -5.651  12.014  0.00  0.00    +0.066 C 
ATOM     22  C   UNL     1      -1.543  -4.545  11.048  0.00  0.00    -0.064 C 
ATOM     23  N   UNL     1      -0.885  -5.206   9.836  0.00  0.00    +0.379 N 
ATOM     24  C   UNL     1      -0.430  -4.169   8.898  0.00  0.00    -0.096 C 
ATOM     25  H   UNL     1      -1.664  -5.812   9.318  0.00  0.00    -0.082 HD
ATOM     26  C   UNL     1       0.227  -6.152  10.265  0.00  0.00    -0.064 C 
ATOM     27  C   UNL     1      -0.312  -7.230  11.247  0.00  0.00    +0.066 C 
ENDBRANCH  19  20
ENDBRANCH  18  19
ENDBRANCH  14  15
ENDBRANCH  12  13
TORSDOF 6
ENDMDL
MODEL 3
REMARK VINA RESULT:      -8.0      8.417     13.536
REMARK  Name = C:\Users\Docking\Desktop\test protocol\1iep_ligandH.pdb
REMARK  8 active torsions:
REMARK  status: ('A' for Active; 'I' for Inactive)
REMARK    1  A    between atoms: _5  and  _11
REMARK    2  A    between atoms: _19  and  _21
REMARK    3  A    between atoms: _22  and  _66
REMARK    4  A    between atoms: _27  and  _30
REMARK    5  A    between atoms: _32  and  _33
REMARK    6  A    between atoms: _38  and  _43
REMARK    7  A    between atoms: _43  and  _46
REMARK    8  A    between atoms: _53  and  _55
REMARK                            x       y       z     vdW  Elec       q    Type
REMARK                         _______ _______ _______ _____ _____    ______ ____
ROOT
ATOM     10  C   UNL     1      -7.175 -15.356  11.630  0.00  0.00    +0.038 A 
ATOM     11  C   UNL     1      -7.752 -15.017  10.379  0.00  0.00    +0.047 A 
ATOM     12  C   UNL     1      -8.399 -16.024   9.552  0.00  0.00    +0.035 A 
ATOM     32  C   UNL     1      -8.443 -17.366  10.031  0.00  0.00    +0.024 A 
ATOM     33  C   UNL     1      -7.860 -17.727  11.300  0.00  0.00    +0.007 A 
ATOM     34  C   UNL     1      -7.218 -16.739  12.119  0.00  0.00    -0.029 A 
ATOM     35  C   UNL     1      -6.605 -17.185  13.467  0.00  0.00    +0.045 C 
ENDROOT
BRANCH  10   9
ATOM      4  C   UNL     1      -3.745 -12.068  12.315  0.00  0.00    +0.077 A 
ATOM      5  C   UNL     1      -3.095 -12.403  11.081  0.00  0.00    +0.048 A 
ATOM      6  C   UNL     1      -3.672 -13.432  10.302  0.00  0.00    +0.116 A 
ATOM      7  N   UNL     1      -4.813 -14.071  10.735  0.00  0.00    -0.223 NA
ATOM      8  C   UNL     1      -5.413 -13.725  11.932  0.00  0.00    +0.220 A 
ATOM      9  N   UNL     1      -6.566 -14.349  12.383  0.00  0.00    -0.283 N 
ATOM     36  H   UNL     1      -6.974 -14.070  13.275  0.00  0.00    +0.155 HD
ATOM     37  N   UNL     1      -4.882 -12.747  12.694  0.00  0.00    -0.214 NA
BRANCH   4   3
ATOM      1  C   UNL     1      -2.632  -8.618  13.783  0.00  0.00    +0.020 A 
ATOM      2  C   UNL     1      -3.105  -9.609  12.844  0.00  0.00    +0.013 A 
ATOM      3  C   UNL     1      -3.258 -11.002  13.246  0.00  0.00    +0.019 A 
ATOM     38  C   UNL     1      -2.922 -11.361  14.615  0.00  0.00    +0.120 A 
ATOM     39  N   UNL     1      -2.467 -10.385  15.496  0.00  0.00    -0.263 NA
ATOM     40  C   UNL     1      -2.314  -9.042  15.121  0.00  0.00    +0.111 A 
ENDBRANCH   4   3
ENDBRANCH  10   9
BRANCH  12  13
ATOM     13  N   UNL     1      -8.995 -15.741   8.270  0.00  0.00    -0.281 N 
ATOM     14  C   UNL     1     -10.335 -15.546   7.978  0.00  0.00    +0.248 C 
ATOM     30  O   UNL     1     -11.253 -15.798   8.745  0.00  0.00    -0.270 OA
ATOM     31  H   UNL     1      -8.350 -15.677   7.482  0.00  0.00    +0.155 HD
BRANCH  14  15
ATOM     15  C   UNL     1     -10.710 -15.007   6.636  0.00  0.00    +0.037 A 
ATOM     16  C   UNL     1      -9.723 -14.891   5.560  0.00  0.00    +0.013 A 
ATOM     17  C   UNL     1     -10.108 -14.352   4.280  0.00  0.00    +0.005 A 
ATOM     18  C   UNL     1     -11.489 -13.925   4.068  0.00  0.00    -0.033 A 
ATOM     28  C   UNL     1     -12.449 -14.056   5.151  0.00  0.00    +0.005 A 
ATOM     29  C   UNL     1     -12.075 -14.584   6.408  0.00  0.00    +0.013 A 
BRANCH  18  19
ATOM     19  C   UNL     1     -11.983 -13.319   2.742  0.00  0.00    +0.119 C 
BRANCH  19  20
ATOM     20  N   UNL     1     -11.511 -11.944   2.401  0.00  0.00    -0.302 NA
ATOM     21  C   UNL     1     -11.523 -11.014   3.617  0.00  0.00    +0.066 C 
ATOM     22  C   UNL     1     -11.005  -9.586   3.248  0.00  0.00    -0.064 C 
ATOM     23  N   UNL     1     -11.862  -9.012   2.119  0.00  0.00    +0.379 N 
ATOM     24  C   UNL     1     -11.414  -7.646   1.808  0.00  0.00    -0.096 C 
ATOM     25  H   UNL     1     -12.911  -8.947   2.490  0.00  0.00    -0.082 HD
ATOM     26  C   UNL     1     -11.858  -9.931   0.906  0.00  0.00    -0.064 C 
ATOM     27  C   UNL     1     -12.347 -11.356   1.290  0.00  0.00    +0.066 C 
ENDBRANCH  19  20
ENDBRANCH  18  19
ENDBRANCH  14  15
ENDBRANCH  12  13
TORSDOF 6
ENDMDL
MODEL 4
REMARK VINA RESULT:      -8.0      8.655     13.971
REMARK  Name = C:\Users\Docking\Desktop\test protocol\1iep_ligandH.pdb
REMARK  8 active torsions:
REMARK  status: ('A' for Active; 'I' for Inactive)
REMARK    1  A    between atoms: _5  and  _11
REMARK    2  A    between atoms: _19  and  _21
REMARK    3  A    between atoms: _22  and  _66
REMARK    4  A    between atoms: _27  and  _30
REMARK    5  A    between atoms: _32  and  _33
REMARK    6  A    between atoms: _38  and  _43
REMARK    7  A    between atoms: _43  and  _46
REMARK    8  A    between atoms: _53  and  _55
REMARK                            x       y       z     vdW  Elec       q    Type
REMARK                         _______ _______ _______ _____ _____    ______ ____
ROOT
ATOM     10  C   UNL     1      -7.698 -14.966  11.057  0.00  0.00    +0.038 A 
ATOM     11  C   UNL     1      -8.301 -14.650   9.813  0.00  0.00    +0.047 A 
ATOM     12  C   UNL     1      -8.974 -15.669   9.022  0.00  0.00    +0.035 A 
ATOM     32  C   UNL     1      -9.016 -17.000   9.530  0.00  0.00    +0.024 A 
ATOM     33  C   UNL     1      -8.407 -17.339  10.792  0.00  0.00    +0.007 A 
ATOM     34  C   UNL     1      -7.740 -16.338  11.575  0.00  0.00    -0.029 A 
ATOM     35  C   UNL     1      -7.099 -16.760  12.918  0.00  0.00    +0.045 C 
ENDROOT
BRANCH  10   9
ATOM      4  C   UNL     1      -3.960 -12.076  11.901  0.00  0.00    +0.077 A 
ATOM      5  C   UNL     1      -3.192 -12.662  10.840  0.00  0.00    +0.048 A 
ATOM      6  C   UNL     1      -3.793 -13.709  10.106  0.00  0.00    +0.116 A 
ATOM      7  N   UNL     1      -5.067 -14.131  10.418  0.00  0.00    -0.223 NA
ATOM      8  C   UNL     1      -5.780 -13.545  11.448  0.00  0.00    +0.220 A 
ATOM      9  N   UNL     1      -7.065 -13.948  11.774  0.00  0.00    -0.283 N 
ATOM     36  H   UNL     1      -7.555 -13.496  12.546  0.00  0.00    +0.155 HD
ATOM     37  N   UNL     1      -5.227 -12.545  12.165  0.00  0.00    -0.214 NA
BRANCH   4   3
ATOM      1  C   UNL     1      -2.936  -8.530  13.195  0.00  0.00    +0.020 A 
ATOM      2  C   UNL     1      -3.424  -9.572  12.321  0.00  0.00    +0.013 A 
ATOM      3  C   UNL     1      -3.464 -10.959  12.765  0.00  0.00    +0.019 A 
ATOM     38  C   UNL     1      -3.000 -11.261  14.111  0.00  0.00    +0.120 A 
ATOM     39  N   UNL     1      -2.534 -10.237  14.930  0.00  0.00    -0.263 NA
ATOM     40  C   UNL     1      -2.489  -8.899  14.512  0.00  0.00    +0.111 A 
ENDBRANCH   4   3
ENDBRANCH  10   9
BRANCH  12  13
ATOM     13  N   UNL     1      -9.598 -15.409   7.748  0.00  0.00    -0.281 N 
ATOM     14  C   UNL     1     -10.746 -14.676   7.496  0.00  0.00    +0.248 C 
ATOM     30  O   UNL     1     -11.535 -14.309   8.354  0.00  0.00    -0.270 OA
ATOM     31  H   UNL     1      -9.137 -15.814   6.934  0.00  0.00    +0.155 HD
BRANCH  14  15
ATOM     15  C   UNL     1     -11.073 -14.310   6.084  0.00  0.00    +0.037 A 
ATOM     16  C   UNL     1     -10.113 -14.532   4.999  0.00  0.00    +0.013 A 
ATOM     17  C   UNL     1     -10.448 -14.154   3.649  0.00  0.00    +0.005 A 
ATOM     18  C   UNL     1     -11.750 -13.551   3.376  0.00  0.00    -0.033 A 
ATOM     28  C   UNL     1     -12.686 -13.348   4.470  0.00  0.00    +0.005 A 
ATOM     29  C   UNL     1     -12.361 -13.716   5.795  0.00  0.00    +0.013 A 
BRANCH  18  19
ATOM     19  C   UNL     1     -12.184 -13.098   1.969  0.00  0.00    +0.119 C 
BRANCH  19  20
ATOM     20  N   UNL     1     -12.423 -11.638   1.765  0.00  0.00    -0.302 NA
ATOM     21  C   UNL     1     -12.905 -11.328   0.345  0.00  0.00    +0.066 C 
ATOM     22  C   UNL     1     -13.172  -9.800   0.155  0.00  0.00    -0.064 C 
ATOM     23  N   UNL     1     -11.897  -9.018   0.476  0.00  0.00    +0.379 N 
ATOM     24  C   UNL     1     -12.128  -7.585   0.242  0.00  0.00    -0.096 C 
ATOM     25  H   UNL     1     -11.107  -9.354  -0.235  0.00  0.00    -0.082 HD
ATOM     26  C   UNL     1     -11.409  -9.323   1.885  0.00  0.00    -0.064 C 
ATOM     27  C   UNL     1     -11.175 -10.848   2.072  0.00  0.00    +0.066 C 
ENDBRANCH  19  20
ENDBRANCH  18  19
ENDBRANCH  14  15
ENDBRANCH  12  13
TORSDOF 6
ENDMDL
MODEL 5
REMARK VINA RESULT:      -8.0      5.497     10.693
REMARK  Name = C:\Users\Docking\Desktop\test protocol\1iep_ligandH.pdb
REMARK  8 active torsions:
REMARK  status: ('A' for Active; 'I' for Inactive)
REMARK    1  A    between atoms: _5  and  _11
REMARK    2  A    between atoms: _19  and  _21
REMARK    3  A    between atoms: _22  and  _66
REMARK    4  A    between atoms: _27  and  _30
REMARK    5  A    between atoms: _32  and  _33
REMARK    6  A    between atoms: _38  and  _43
REMARK    7  A    between atoms: _43  and  _46
REMARK    8  A    between atoms: _53  and  _55
REMARK                            x       y       z     vdW  Elec       q    Type
REMARK                         _______ _______ _______ _____ _____    ______ ____
ROOT
ATOM     10  C   UNL     1      -7.198 -14.463  11.389  0.00  0.00    +0.038 A 
ATOM     11  C   UNL     1      -6.366 -13.405  11.837  0.00  0.00    +0.047 A 
ATOM     12  C   UNL     1      -5.839 -12.417  10.909  0.00  0.00    +0.035 A 
ATOM     32  C   UNL     1      -6.183 -12.534   9.531  0.00  0.00    +0.024 A 
ATOM     33  C   UNL     1      -7.026 -13.604   9.057  0.00  0.00    +0.007 A 
ATOM     34  C   UNL     1      -7.546 -14.583   9.968  0.00  0.00    -0.029 A 
ATOM     35  C   UNL     1      -8.441 -15.712   9.404  0.00  0.00    +0.045 C 
ENDROOT
BRANCH  10   9
ATOM      4  C   UNL     1      -6.683 -18.375  14.121  0.00  0.00    +0.077 A 
ATOM      5  C   UNL     1      -5.359 -18.621  13.624  0.00  0.00    +0.048 A 
ATOM      6  C   UNL     1      -4.851 -17.720  12.661  0.00  0.00    +0.116 A 
ATOM      7  N   UNL     1      -5.617 -16.657  12.234  0.00  0.00    -0.223 NA
ATOM      8  C   UNL     1      -6.890 -16.451  12.733  0.00  0.00    +0.220 A 
ATOM      9  N   UNL     1      -7.676 -15.384  12.324  0.00  0.00    -0.283 N 
ATOM     36  H   UNL     1      -8.613 -15.271  12.710  0.00  0.00    +0.155 HD
ATOM     37  N   UNL     1      -7.399 -17.297  13.652  0.00  0.00    -0.214 NA
BRANCH   4   3
ATOM      1  C   UNL     1      -9.358 -20.471  16.058  0.00  0.00    +0.020 A 
ATOM      2  C   UNL     1      -8.755 -19.638  15.043  0.00  0.00    +0.013 A 
ATOM      3  C   UNL     1      -7.357 -19.236  15.144  0.00  0.00    +0.019 A 
ATOM     38  C   UNL     1      -6.592 -19.697  16.292  0.00  0.00    +0.120 A 
ATOM     39  N   UNL     1      -7.200 -20.496  17.255  0.00  0.00    -0.263 NA
ATOM     40  C   UNL     1      -8.545 -20.889  17.170  0.00  0.00    +0.111 A 
ENDBRANCH   4   3
ENDBRANCH  10   9
BRANCH  12  13
ATOM     13  N   UNL     1      -4.984 -11.326  11.305  0.00  0.00    -0.281 N 
ATOM     14  C   UNL     1      -3.889 -11.367  12.153  0.00  0.00    +0.248 C 
ATOM     30  O   UNL     1      -3.606 -12.314  12.871  0.00  0.00    -0.270 OA
ATOM     31  H   UNL     1      -5.213 -10.413  10.912  0.00  0.00    +0.155 HD
BRANCH  14  15
ATOM     15  C   UNL     1      -2.985 -10.178  12.223  0.00  0.00    +0.037 A 
ATOM     16  C   UNL     1      -3.511  -8.816  12.105  0.00  0.00    +0.013 A 
ATOM     17  C   UNL     1      -2.615  -7.688  12.158  0.00  0.00    +0.005 A 
ATOM     18  C   UNL     1      -1.183  -7.918  12.333  0.00  0.00    -0.033 A 
ATOM     28  C   UNL     1      -0.689  -9.280  12.453  0.00  0.00    +0.005 A 
ATOM     29  C   UNL     1      -1.564 -10.388  12.399  0.00  0.00    +0.013 A 
BRANCH  18  19
ATOM     19  C   UNL     1      -0.152  -6.775  12.380  0.00  0.00    +0.119 C 
BRANCH  19  20
ATOM     20  N   UNL     1       0.259  -6.170  11.078  0.00  0.00    -0.302 NA
ATOM     21  C   UNL     1      -0.720  -5.088  10.613  0.00  0.00    +0.066 C 
ATOM     22  C   UNL     1      -0.263  -4.451   9.260  0.00  0.00    -0.064 C 
ATOM     23  N   UNL     1      -0.125  -5.548   8.203  0.00  0.00    +0.379 N 
ATOM     24  C   UNL     1       0.248  -4.945   6.916  0.00  0.00    -0.096 C 
ATOM     25  H   UNL     1      -1.126  -6.023   8.077  0.00  0.00    -0.082 HD
ATOM     26  C   UNL     1       0.844  -6.630   8.659  0.00  0.00    -0.064 C 
ATOM     27  C   UNL     1       0.396  -7.236  10.018  0.00  0.00    +0.066 C 
ENDBRANCH  19  20
ENDBRANCH  18  19
ENDBRANCH  14  15
ENDBRANCH  12  13
TORSDOF 6
ENDMDL
