MODEL 1
REMARK VINA RESULT:      -8.3      0.000      0.000
REMARK  Name = C:\Users\Docking\Desktop\test protocol\1iep_ligandH.pdb
REMARK  8 active torsions:
REMARK  status: ('A' for Active; 'I' for Inactive)
REMARK    1  A    between atoms: _5  and  _11
REMARK    2  A    between atoms: _19  and  _21
REMARK    3  A    between atoms: _22  and  _66
REMARK    4  A    between atoms: _27  and  _30
REMARK    5  A    between atoms: _32  and  _33
REMARK    6  A    between atoms: _38  and  _43
REMARK    7  A    between atoms: _43  and  _46
REMARK    8  A    between atoms: _53  and  _55
REMARK                            x       y       z     vdW  Elec       q    Type
REMARK                         _______ _______ _______ _____ _____    ______ ____
ROOT
ATOM     10  C   UNL     1       2.957   0.062   1.831  0.00  0.00    +0.038 A 
ATOM     11  C   UNL     1       2.179  -0.706   0.928  0.00  0.00    +0.047 A 
ATOM     12  C   UNL     1       0.974  -1.391   1.367  0.00  0.00    +0.035 A 
ATOM     32  C   UNL     1       0.589  -1.272   2.735  0.00  0.00    +0.024 A 
ATOM     33  C   UNL     1       1.370  -0.497   3.667  0.00  0.00    +0.007 A 
ATOM     34  C   UNL     1       2.561   0.179   3.240  0.00  0.00    -0.029 A 
ATOM     35  C   UNL     1       3.362   0.991   4.284  0.00  0.00    +0.045 C 
ENDROOT
BRANCH  10   9
ATOM      4  C   UNL     1       7.569   0.038   0.499  0.00  0.00    +0.077 A 
ATOM      5  C   UNL     1       7.711  -1.356   0.803  0.00  0.00    +0.048 A 
ATOM      6  C   UNL     1       6.575  -2.030   1.307  0.00  0.00    +0.116 A 
ATOM      7  N   UNL     1       5.391  -1.349   1.489  0.00  0.00    -0.223 NA
ATOM      8  C   UNL     1       5.288  -0.003   1.187  0.00  0.00    +0.220 A 
ATOM      9  N   UNL     1       4.105   0.699   1.355  0.00  0.00    -0.283 N 
ATOM     36  H   UNL     1       4.072   1.693   1.128  0.00  0.00    +0.155 HD
ATOM     37  N   UNL     1       6.359   0.663   0.706  0.00  0.00    -0.214 NA
BRANCH   4   3
ATOM      1  C   UNL     1      10.955   1.192  -1.081  0.00  0.00    +0.020 A 
ATOM      2  C   UNL     1       9.917   0.329  -0.569  0.00  0.00    +0.013 A 
ATOM      3  C   UNL     1       8.677   0.886  -0.043  0.00  0.00    +0.019 A 
ATOM     38  C   UNL     1       8.518   2.333  -0.052  0.00  0.00    +0.120 A 
ATOM     39  N   UNL     1       9.536   3.139  -0.551  0.00  0.00    -0.263 NA
ATOM     40  C   UNL     1      10.735   2.614  -1.057  0.00  0.00    +0.111 A 
ENDBRANCH   4   3
ENDBRANCH  10   9
BRANCH  12  13
ATOM     13  N   UNL     1       0.148  -2.191   0.497  0.00  0.00    -0.281 N 
ATOM     14  C   UNL     1       0.386  -2.536  -0.823  0.00  0.00    +0.248 C 
ATOM     30  O   UNL     1       1.247  -2.028  -1.526  0.00  0.00    -0.270 OA
ATOM     31  H   UNL     1      -0.718  -2.546   0.904  0.00  0.00    +0.155 HD
BRANCH  14  15
ATOM     15  C   UNL     1      -0.466  -3.586  -1.460  0.00  0.00    +0.037 A 
ATOM     16  C   UNL     1      -1.814  -3.875  -0.965  0.00  0.00    +0.013 A 
ATOM     17  C   UNL     1      -2.608  -4.905  -1.586  0.00  0.00    +0.005 A 
ATOM     18  C   UNL     1      -2.055  -5.654  -2.712  0.00  0.00    -0.033 A 
ATOM     28  C   UNL     1      -0.717  -5.343  -3.187  0.00  0.00    +0.005 A 
ATOM     29  C   UNL     1       0.065  -4.335  -2.579  0.00  0.00    +0.013 A 
BRANCH  18  19
ATOM     19  C   UNL     1      -2.823  -6.785  -3.423  0.00  0.00    +0.119 C 
BRANCH  19  20
ATOM     20  N   UNL     1      -3.861  -6.385  -4.419  0.00  0.00    -0.302 NA
ATOM     21  C   UNL     1      -5.265  -6.823  -3.992  0.00  0.00    +0.066 C 
ATOM     22  C   UNL     1      -6.342  -6.377  -5.034  0.00  0.00    -0.064 C 
ATOM     23  N   UNL     1      -5.989  -6.953  -6.406  0.00  0.00    +0.379 N 
ATOM     24  C   UNL     1      -7.030  -6.584  -7.376  0.00  0.00    -0.096 C 
ATOM     25  H   UNL     1      -5.989  -8.065  -6.316  0.00  0.00    -0.082 HD
ATOM     26  C   UNL     1      -4.593  -6.525  -6.837  0.00  0.00    -0.064 C 
ATOM     27  C   UNL     1      -3.534  -6.947  -5.780  0.00  0.00    +0.066 C 
ENDBRANCH  19  20
ENDBRANCH  18  19
ENDBRANCH  14  15
ENDBRANCH  12  13
TORSDOF 6
ENDMDL
MODEL 2
REMARK VINA RESULT:      -8.0     11.624     13.995
REMARK  Name = C:\Users\Docking\Desktop\test protocol\1iep_ligandH.pdb
REMARK  8 active torsions:
REMARK  status: ('A' for Active; 'I' for Inactive)
REMARK    1  A    between atoms: _5  and  _11
REMARK    2  A    between atoms: _19  and  _21
REMARK    3  A    between atoms: _22  and  _66
REMARK    4  A    between atoms: _27  and  _30
REMARK    5  A    between atoms: _32  and  _33
REMARK    6  A    between atoms: _38  and  _43
REMARK    7  A    between atoms: _43  and  _46
REMARK    8  A    between atoms: _53  and  _55
REMARK                            x       y       z     vdW  Elec       q    Type
REMARK                         _______ _______ _______ _____ _____    ______ ____
ROOT
ATOM     10  C   UNL     1       9.403   4.566  -2.803  0.00  0.00    +0.038 A 
ATOM     11  C   UNL     1       9.835   3.633  -3.780  0.00  0.00    +0.047 A 
ATOM     12  C   UNL     1      10.994   2.785  -3.550  0.00  0.00    +0.035 A 
ATOM     32  C   UNL     1      11.689   2.911  -2.312  0.00  0.00    +0.024 A 
ATOM     33  C   UNL     1      11.264   3.854  -1.308  0.00  0.00    +0.007 A 
ATOM     34  C   UNL     1      10.123   4.696  -1.530  0.00  0.00    -0.029 A 
ATOM     35  C   UNL     1       9.717   5.694  -0.421  0.00  0.00    +0.045 C 
ENDROOT
BRANCH  10   9
ATOM      4  C   UNL     1       7.323   8.437  -4.731  0.00  0.00    +0.077 A 
ATOM      5  C   UNL     1       8.576   8.944  -5.212  0.00  0.00    +0.048 A 
ATOM      6  C   UNL     1       9.733   8.182  -4.936  0.00  0.00    +0.116 A 
ATOM      7  N   UNL     1       9.633   7.002  -4.231  0.00  0.00    -0.223 NA
ATOM      8  C   UNL     1       8.409   6.543  -3.780  0.00  0.00    +0.220 A 
ATOM      9  N   UNL     1       8.284   5.355  -3.076  0.00  0.00    -0.283 N 
ATOM     36  H   UNL     1       7.364   5.054  -2.754  0.00  0.00    +0.155 HD
ATOM     37  N   UNL     1       7.289   7.253  -4.029  0.00  0.00    -0.214 NA
BRANCH   4   3
ATOM      1  C   UNL     1       4.157   9.996  -6.419  0.00  0.00    +0.020 A 
ATOM      2  C   UNL     1       5.427   9.324  -6.267  0.00  0.00    +0.013 A 
ATOM      3  C   UNL     1       6.011   9.127  -4.946  0.00  0.00    +0.019 A 
ATOM     38  C   UNL     1       5.279   9.625  -3.791  0.00  0.00    +0.120 A 
ATOM     39  N   UNL     1       4.059  10.270  -3.969  0.00  0.00    -0.263 NA
ATOM     40  C   UNL     1       3.488  10.467  -5.235  0.00  0.00    +0.111 A 
ENDBRANCH   4   3
ENDBRANCH  10   9
BRANCH  12  13
ATOM     13  N   UNL     1      11.485   1.826  -4.509  0.00  0.00    -0.281 N 
ATOM     14  C   UNL     1      11.352   0.447  -4.478  0.00  0.00    +0.248 C 
ATOM     30  O   UNL     1      10.974  -0.189  -3.505  0.00  0.00    -0.270 OA
ATOM     31  H   UNL     1      11.991   2.210  -5.307  0.00  0.00    +0.155 HD
BRANCH  14  15
ATOM     15  C   UNL     1      11.704  -0.340  -5.699  0.00  0.00    +0.037 A 
ATOM     16  C   UNL     1      13.073  -0.807  -5.934  0.00  0.00    +0.013 A 
ATOM     17  C   UNL     1      13.388  -1.550  -7.128  0.00  0.00    +0.005 A 
ATOM     18  C   UNL     1      12.332  -1.830  -8.097  0.00  0.00    -0.033 A 
ATOM     28  C   UNL     1      10.982  -1.359  -7.837  0.00  0.00    +0.005 A 
ATOM     29  C   UNL     1      10.669  -0.630  -6.668  0.00  0.00    +0.013 A 
BRANCH  18  19
ATOM     19  C   UNL     1      12.582  -2.597  -9.410  0.00  0.00    +0.119 C 
BRANCH  19  20
ATOM     20  N   UNL     1      13.320  -1.878 -10.491  0.00  0.00    -0.302 NA
ATOM     21  C   UNL     1      12.484  -0.753 -11.108  0.00  0.00    +0.066 C 
ATOM     22  C   UNL     1      13.279   0.002 -12.222  0.00  0.00    -0.064 C 
ATOM     23  N   UNL     1      13.720  -0.995 -13.295  0.00  0.00    +0.379 N 
ATOM     24  C   UNL     1      14.418  -0.279 -14.372  0.00  0.00    -0.096 C 
ATOM     25  H   UNL     1      12.801  -1.451 -13.731  0.00  0.00    -0.082 HD
ATOM     26  C   UNL     1      14.550  -2.118 -12.690  0.00  0.00    -0.064 C 
ATOM     27  C   UNL     1      13.762  -2.844 -11.564  0.00  0.00    +0.066 C 
ENDBRANCH  19  20
ENDBRANCH  18  19
ENDBRANCH  14  15
ENDBRANCH  12  13
TORSDOF 6
ENDMDL
MODEL 3
REMARK VINA RESULT:      -7.8      5.118     12.789
REMARK  Name = C:\Users\Docking\Desktop\test protocol\1iep_ligandH.pdb
REMARK  8 active torsions:
REMARK  status: ('A' for Active; 'I' for Inactive)
REMARK    1  A    between atoms: _5  and  _11
REMARK    2  A    between atoms: _19  and  _21
REMARK    3  A    between atoms: _22  and  _66
REMARK    4  A    between atoms: _27  and  _30
REMARK    5  A    between atoms: _32  and  _33
REMARK    6  A    between atoms: _38  and  _43
REMARK    7  A    between atoms: _43  and  _46
REMARK    8  A    between atoms: _53  and  _55
REMARK                            x       y       z     vdW  Elec       q    Type
REMARK                         _______ _______ _______ _____ _____    ______ ____
ROOT
ATOM     10  C   UNL     1       5.251  -0.211   0.126  0.00  0.00    +0.038 A 
ATOM     11  C   UNL     1       5.579   1.043  -0.450  0.00  0.00    +0.047 A 
ATOM     12  C   UNL     1       6.559   1.922   0.168  0.00  0.00    +0.035 A 
ATOM     32  C   UNL     1       7.189   1.491   1.372  0.00  0.00    +0.024 A 
ATOM     33  C   UNL     1       6.868   0.220   1.971  0.00  0.00    +0.007 A 
ATOM     34  C   UNL     1       5.900  -0.651   1.367  0.00  0.00    -0.029 A 
ATOM     35  C   UNL     1       5.589  -1.999   2.058  0.00  0.00    +0.045 C 
ENDROOT
BRANCH  10   9
ATOM      4  C   UNL     1       0.879  -2.167  -0.175  0.00  0.00    +0.077 A 
ATOM      5  C   UNL     1       0.456  -1.557   1.052  0.00  0.00    +0.048 A 
ATOM      6  C   UNL     1       1.397  -0.753   1.734  0.00  0.00    +0.116 A 
ATOM      7  N   UNL     1       2.663  -0.579   1.217  0.00  0.00    -0.223 NA
ATOM      8  C   UNL     1       3.038  -1.183   0.032  0.00  0.00    +0.220 A 
ATOM      9  N   UNL     1       4.303  -1.015  -0.510  0.00  0.00    -0.283 N 
ATOM     36  H   UNL     1       4.544  -1.484  -1.383  0.00  0.00    +0.155 HD
ATOM     37  N   UNL     1       2.159  -1.957  -0.638  0.00  0.00    -0.214 NA
BRANCH   4   3
ATOM      1  C   UNL     1      -0.377  -4.760  -2.822  0.00  0.00    +0.020 A 
ATOM      2  C   UNL     1       0.517  -3.935  -2.041  0.00  0.00    +0.013 A 
ATOM      3  C   UNL     1      -0.002  -3.042  -1.013  0.00  0.00    +0.019 A 
ATOM     38  C   UNL     1      -1.440  -3.007  -0.797  0.00  0.00    +0.120 A 
ATOM     39  N   UNL     1      -2.276  -3.811  -1.565  0.00  0.00    -0.263 NA
ATOM     40  C   UNL     1      -1.789  -4.673  -2.559  0.00  0.00    +0.111 A 
ENDBRANCH   4   3
ENDBRANCH  10   9
BRANCH  12  13
ATOM     13  N   UNL     1       6.926   3.210  -0.366  0.00  0.00    -0.281 N 
ATOM     14  C   UNL     1       8.163   3.615  -0.839  0.00  0.00    +0.248 C 
ATOM     30  O   UNL     1       9.202   2.993  -0.676  0.00  0.00    -0.270 OA
ATOM     31  H   UNL     1       6.183   3.908  -0.400  0.00  0.00    +0.155 HD
BRANCH  14  15
ATOM     15  C   UNL     1       8.263   4.903  -1.590  0.00  0.00    +0.037 A 
ATOM     16  C   UNL     1       8.755   4.943  -2.970  0.00  0.00    +0.013 A 
ATOM     17  C   UNL     1       8.857   6.202  -3.665  0.00  0.00    +0.005 A 
ATOM     18  C   UNL     1       8.465   7.432  -2.981  0.00  0.00    -0.033 A 
ATOM     28  C   UNL     1       7.976   7.363  -1.614  0.00  0.00    +0.005 A 
ATOM     29  C   UNL     1       7.875   6.131  -0.929  0.00  0.00    +0.013 A 
BRANCH  18  19
ATOM     19  C   UNL     1       8.561   8.821  -3.638  0.00  0.00    +0.119 C 
BRANCH  19  20
ATOM     20  N   UNL     1       7.724   9.064  -4.851  0.00  0.00    -0.302 NA
ATOM     21  C   UNL     1       7.750  10.532  -5.283  0.00  0.00    +0.066 C 
ATOM     22  C   UNL     1       6.887  10.763  -6.566  0.00  0.00    -0.064 C 
ATOM     23  N   UNL     1       5.453  10.303  -6.302  0.00  0.00    +0.379 N 
ATOM     24  C   UNL     1       4.625  10.572  -7.487  0.00  0.00    -0.096 C 
ATOM     25  H   UNL     1       5.051  10.915  -5.462  0.00  0.00    -0.082 HD
ATOM     26  C   UNL     1       5.417   8.844  -5.869  0.00  0.00    -0.064 C 
ATOM     27  C   UNL     1       6.302   8.620  -4.610  0.00  0.00    +0.066 C 
ENDBRANCH  19  20
ENDBRANCH  18  19
ENDBRANCH  14  15
ENDBRANCH  12  13
TORSDOF 6
ENDMDL
MODEL 4
REMARK VINA RESULT:      -7.7      7.223      8.943
REMARK  Name = C:\Users\Docking\Desktop\test protocol\1iep_ligandH.pdb
REMARK  8 active torsions:
REMARK  status: ('A' for Active; 'I' for Inactive)
REMARK    1  A    between atoms: _5  and  _11
REMARK    2  A    between atoms: _19  and  _21
REMARK    3  A    between atoms: _22  and  _66
REMARK    4  A    between atoms: _27  and  _30
REMARK    5  A    between atoms: _32  and  _33
REMARK    6  A    between atoms: _38  and  _43
REMARK    7  A    between atoms: _43  and  _46
REMARK    8  A    between atoms: _53  and  _55
REMARK                            x       y       z     vdW  Elec       q    Type
REMARK                         _______ _______ _______ _____ _____    ______ ____
ROOT
ATOM     10  C   UNL     1      -1.021 -10.201   3.937  0.00  0.00    +0.038 A 
ATOM     11  C   UNL     1      -1.485  -9.667   2.708  0.00  0.00    +0.047 A 
ATOM     12  C   UNL     1      -2.847  -9.901   2.251  0.00  0.00    +0.035 A 
ATOM     32  C   UNL     1      -3.710 -10.683   3.074  0.00  0.00    +0.024 A 
ATOM     33  C   UNL     1      -3.254 -11.234   4.326  0.00  0.00    +0.007 A 
ATOM     34  C   UNL     1      -1.912 -11.009   4.779  0.00  0.00    -0.029 A 
ATOM     35  C   UNL     1      -1.475 -11.630   6.127  0.00  0.00    +0.045 C 
ENDROOT
BRANCH  10   9
ATOM      4  C   UNL     1       2.314  -7.465   6.041  0.00  0.00    +0.077 A 
ATOM      5  C   UNL     1       1.357  -6.448   6.369  0.00  0.00    +0.048 A 
ATOM      6  C   UNL     1       0.018  -6.664   5.972  0.00  0.00    +0.116 A 
ATOM      7  N   UNL     1      -0.326  -7.816   5.298  0.00  0.00    -0.223 NA
ATOM      8  C   UNL     1       0.621  -8.776   4.996  0.00  0.00    +0.220 A 
ATOM      9  N   UNL     1       0.295  -9.945   4.326  0.00  0.00    -0.283 N 
ATOM     36  H   UNL     1       1.025 -10.626   4.115  0.00  0.00    +0.155 HD
ATOM     37  N   UNL     1       1.907  -8.593   5.363  0.00  0.00    -0.214 NA
BRANCH   4   3
ATOM      1  C   UNL     1       6.018  -8.425   6.851  0.00  0.00    +0.020 A 
ATOM      2  C   UNL     1       4.622  -8.559   6.506  0.00  0.00    +0.013 A 
ATOM      3  C   UNL     1       3.766  -7.384   6.396  0.00  0.00    +0.019 A 
ATOM     38  C   UNL     1       4.360  -6.078   6.641  0.00  0.00    +0.120 A 
ATOM     39  N   UNL     1       5.707  -5.980   6.973  0.00  0.00    -0.263 NA
ATOM     40  C   UNL     1       6.540  -7.104   7.084  0.00  0.00    +0.111 A 
ENDBRANCH   4   3
ENDBRANCH  10   9
BRANCH  12  13
ATOM     13  N   UNL     1      -3.372  -9.391   1.009  0.00  0.00    -0.281 N 
ATOM     14  C   UNL     1      -3.808  -8.105   0.733  0.00  0.00    +0.248 C 
ATOM     30  O   UNL     1      -4.013  -7.248   1.579  0.00  0.00    -0.270 OA
ATOM     31  H   UNL     1      -3.429 -10.059   0.240  0.00  0.00    +0.155 HD
BRANCH  14  15
ATOM     15  C   UNL     1      -4.067  -7.721  -0.688  0.00  0.00    +0.037 A 
ATOM     16  C   UNL     1      -5.037  -8.451  -1.508  0.00  0.00    +0.013 A 
ATOM     17  C   UNL     1      -5.256  -8.070  -2.881  0.00  0.00    +0.005 A 
ATOM     18  C   UNL     1      -4.503  -6.951  -3.442  0.00  0.00    -0.033 A 
ATOM     28  C   UNL     1      -3.551  -6.240  -2.605  0.00  0.00    +0.005 A 
ATOM     29  C   UNL     1      -3.333  -6.612  -1.259  0.00  0.00    +0.013 A 
BRANCH  18  19
ATOM     19  C   UNL     1      -4.657  -6.488  -4.903  0.00  0.00    +0.119 C 
BRANCH  19  20
ATOM     20  N   UNL     1      -5.873  -6.944  -5.640  0.00  0.00    -0.302 NA
ATOM     21  C   UNL     1      -5.786  -6.636  -7.138  0.00  0.00    +0.066 C 
ATOM     22  C   UNL     1      -7.057  -7.140  -7.897  0.00  0.00    -0.064 C 
ATOM     23  N   UNL     1      -8.302  -6.499  -7.283  0.00  0.00    +0.379 N 
ATOM     24  C   UNL     1      -9.493  -6.926  -8.032  0.00  0.00    -0.096 C 
ATOM     25  H   UNL     1      -8.207  -5.394  -7.400  0.00  0.00    -0.082 HD
ATOM     26  C   UNL     1      -8.395  -6.799  -5.794  0.00  0.00    -0.064 C 
ATOM     27  C   UNL     1      -7.115  -6.320  -5.053  0.00  0.00    +0.066 C 
ENDBRANCH  19  20
ENDBRANCH  18  19
ENDBRANCH  14  15
ENDBRANCH  12  13
TORSDOF 6
ENDMDL
MODEL 5
REMARK VINA RESULT:      -7.7      1.931      2.667
REMARK  Name = C:\Users\Docking\Desktop\test protocol\1iep_ligandH.pdb
REMARK  8 active torsions:
REMARK  status: ('A' for Active; 'I' for Inactive)
REMARK    1  A    between atoms: _5  and  _11
REMARK    2  A    between atoms: _19  and  _21
REMARK    3  A    between atoms: _22  and  _66
REMARK    4  A    between atoms: _27  and  _30
REMARK    5  A    between atoms: _32  and  _33
REMARK    6  A    between atoms: _38  and  _43
REMARK    7  A    between atoms: _43  and  _46
REMARK    8  A    between atoms: _53  and  _55
REMARK                            x       y       z     vdW  Elec       q    Type
REMARK                         _______ _______ _______ _____ _____    ______ ____
ROOT
ATOM     10  C   UNL     1       3.322  -1.079   2.919  0.00  0.00    +0.038 A 
ATOM     11  C   UNL     1       2.589  -1.848   1.980  0.00  0.00    +0.047 A 
ATOM     12  C   UNL     1       1.178  -1.591   1.735  0.00  0.00    +0.035 A 
ATOM     32  C   UNL     1       0.546  -0.541   2.463  0.00  0.00    +0.024 A 
ATOM     33  C   UNL     1       1.276   0.250   3.422  0.00  0.00    +0.007 A 
ATOM     34  C   UNL     1       2.667  -0.000   3.670  0.00  0.00    -0.029 A 
ATOM     35  C   UNL     1       3.398   0.875   4.714  0.00  0.00    +0.045 C 
ENDROOT
BRANCH  10   9
ATOM      4  C   UNL     1       7.931  -0.861   1.597  0.00  0.00    +0.077 A 
ATOM      5  C   UNL     1       7.615  -0.132   0.403  0.00  0.00    +0.048 A 
ATOM      6  C   UNL     1       6.254   0.160   0.162  0.00  0.00    +0.116 A 
ATOM      7  N   UNL     1       5.289  -0.250   1.056  0.00  0.00    -0.223 NA
ATOM      8  C   UNL     1       5.628  -0.953   2.198  0.00  0.00    +0.220 A 
ATOM      9  N   UNL     1       4.674  -1.368   3.115  0.00  0.00    -0.283 N 
ATOM     36  H   UNL     1       4.964  -1.890   3.941  0.00  0.00    +0.155 HD
ATOM     37  N   UNL     1       6.920  -1.246   2.450  0.00  0.00    -0.214 NA
BRANCH   4   3
ATOM      1  C   UNL     1      11.048  -2.910   2.775  0.00  0.00    +0.020 A 
ATOM      2  C   UNL     1       9.689  -2.593   2.403  0.00  0.00    +0.013 A 
ATOM      3  C   UNL     1       9.324  -1.243   1.993  0.00  0.00    +0.019 A 
ATOM     38  C   UNL     1      10.367  -0.229   1.968  0.00  0.00    +0.120 A 
ATOM     39  N   UNL     1      11.667  -0.562   2.333  0.00  0.00    -0.263 NA
ATOM     40  C   UNL     1      12.030  -1.858   2.731  0.00  0.00    +0.111 A 
ENDBRANCH   4   3
ENDBRANCH  10   9
BRANCH  12  13
ATOM     13  N   UNL     1       0.380  -2.345   0.800  0.00  0.00    -0.281 N 
ATOM     14  C   UNL     1       0.440  -2.320  -0.584  0.00  0.00    +0.248 C 
ATOM     30  O   UNL     1       1.046  -1.482  -1.235  0.00  0.00    -0.270 OA
ATOM     31  H   UNL     1      -0.313  -2.973   1.207  0.00  0.00    +0.155 HD
BRANCH  14  15
ATOM     15  C   UNL     1      -0.292  -3.368  -1.357  0.00  0.00    +0.037 A 
ATOM     16  C   UNL     1       0.371  -4.134  -2.416  0.00  0.00    +0.013 A 
ATOM     17  C   UNL     1      -0.363  -5.128  -3.158  0.00  0.00    +0.005 A 
ATOM     18  C   UNL     1      -1.770  -5.363  -2.843  0.00  0.00    -0.033 A 
ATOM     28  C   UNL     1      -2.402  -4.593  -1.784  0.00  0.00    +0.005 A 
ATOM     29  C   UNL     1      -1.686  -3.618  -1.055  0.00  0.00    +0.013 A 
BRANCH  18  19
ATOM     19  C   UNL     1      -2.636  -6.389  -3.597  0.00  0.00    +0.119 C 
BRANCH  19  20
ATOM     20  N   UNL     1      -4.082  -6.463  -3.233  0.00  0.00    -0.302 NA
ATOM     21  C   UNL     1      -4.394  -7.683  -2.361  0.00  0.00    +0.066 C 
ATOM     22  C   UNL     1      -5.907  -7.731  -1.971  0.00  0.00    -0.064 C 
ATOM     23  N   UNL     1      -6.759  -7.741  -3.241  0.00  0.00    +0.379 N 
ATOM     24  C   UNL     1      -8.180  -7.846  -2.879  0.00  0.00    -0.096 C 
ATOM     25  H   UNL     1      -6.490  -8.654  -3.822  0.00  0.00    -0.082 HD
ATOM     26  C   UNL     1      -6.453  -6.533  -4.115  0.00  0.00    -0.064 C 
ATOM     27  C   UNL     1      -4.942  -6.478  -4.473  0.00  0.00    +0.066 C 
ENDBRANCH  19  20
ENDBRANCH  18  19
ENDBRANCH  14  15
ENDBRANCH  12  13
TORSDOF 6
ENDMDL
