MODEL 1
REMARK VINA RESULT:      -8.3      0.000      0.000
REMARK  Name = C:\Users\Docking\Desktop\test protocol\1iep_ligandH.pdb
REMARK  8 active torsions:
REMARK  status: ('A' for Active; 'I' for Inactive)
REMARK    1  A    between atoms: _5  and  _11
REMARK    2  A    between atoms: _19  and  _21
REMARK    3  A    between atoms: _22  and  _66
REMARK    4  A    between atoms: _27  and  _30
REMARK    5  A    between atoms: _32  and  _33
REMARK    6  A    between atoms: _38  and  _43
REMARK    7  A    between atoms: _43  and  _46
REMARK    8  A    between atoms: _53  and  _55
REMARK                            x       y       z     vdW  Elec       q    Type
REMARK                         _______ _______ _______ _____ _____    ______ ____
ROOT
ATOM     10  C   UNL     1       8.107   4.424  33.532  0.00  0.00    +0.038 A 
ATOM     11  C   UNL     1       7.650   3.167  33.059  0.00  0.00    +0.047 A 
ATOM     12  C   UNL     1       7.555   2.019  33.946  0.00  0.00    +0.035 A 
ATOM     32  C   UNL     1       7.930   2.186  35.311  0.00  0.00    +0.024 A 
ATOM     33  C   UNL     1       8.398   3.456  35.809  0.00  0.00    +0.007 A 
ATOM     34  C   UNL     1       8.496   4.592  34.937  0.00  0.00    -0.029 A 
ATOM     35  C   UNL     1       9.010   5.928  35.523  0.00  0.00    +0.045 C 
ENDROOT
BRANCH  10   9
ATOM      4  C   UNL     1       9.790   6.500  29.545  0.00  0.00    +0.077 A 
ATOM      5  C   UNL     1      10.618   5.370  29.235  0.00  0.00    +0.048 A 
ATOM      6  C   UNL     1      10.586   4.277  30.131  0.00  0.00    +0.116 A 
ATOM      7  N   UNL     1       9.784   4.323  31.250  0.00  0.00    -0.223 NA
ATOM      8  C   UNL     1       8.999   5.429  31.521  0.00  0.00    +0.220 A 
ATOM      9  N   UNL     1       8.179   5.493  32.636  0.00  0.00    -0.283 N 
ATOM     36  H   UNL     1       7.621   6.330  32.804  0.00  0.00    +0.155 HD
ATOM     37  N   UNL     1       9.013   6.485  30.681  0.00  0.00    -0.214 NA
BRANCH   4   3
ATOM      1  C   UNL     1       8.528   9.788  27.843  0.00  0.00    +0.020 A 
ATOM      2  C   UNL     1       8.553   8.613  28.683  0.00  0.00    +0.013 A 
ATOM      3  C   UNL     1       9.712   7.729  28.694  0.00  0.00    +0.019 A 
ATOM     38  C   UNL     1      10.839   8.066  27.837  0.00  0.00    +0.120 A 
ATOM     39  N   UNL     1      10.786   9.203  27.037  0.00  0.00    -0.263 NA
ATOM     40  C   UNL     1       9.675  10.060  27.017  0.00  0.00    +0.111 A 
ENDBRANCH   4   3
ENDBRANCH  10   9
BRANCH  12  13
ATOM     13  N   UNL     1       7.106   0.716  33.521  0.00  0.00    -0.281 N 
ATOM     14  C   UNL     1       5.863   0.365  33.021  0.00  0.00    +0.248 C 
ATOM     30  O   UNL     1       4.873   1.081  33.064  0.00  0.00    -0.270 OA
ATOM     31  H   UNL     1       7.788  -0.039  33.598  0.00  0.00    +0.155 HD
BRANCH  14  15
ATOM     15  C   UNL     1       5.690  -0.982  32.396  0.00  0.00    +0.037 A 
ATOM     16  C   UNL     1       6.240  -2.187  33.022  0.00  0.00    +0.013 A 
ATOM     17  C   UNL     1       6.074  -3.471  32.390  0.00  0.00    +0.005 A 
ATOM     18  C   UNL     1       5.352  -3.557  31.123  0.00  0.00    -0.033 A 
ATOM     28  C   UNL     1       4.812  -2.347  30.526  0.00  0.00    +0.005 A 
ATOM     29  C   UNL     1       4.974  -1.086  31.143  0.00  0.00    +0.013 A 
BRANCH  18  19
ATOM     19  C   UNL     1       5.145  -4.883  30.366  0.00  0.00    +0.119 C 
BRANCH  19  20
ATOM     20  N   UNL     1       4.646  -4.797  28.961  0.00  0.00    -0.302 NA
ATOM     21  C   UNL     1       3.461  -5.736  28.715  0.00  0.00    +0.066 C 
ATOM     22  C   UNL     1       2.937  -5.618  27.247  0.00  0.00    -0.064 C 
ATOM     23  N   UNL     1       4.079  -5.920  26.274  0.00  0.00    +0.379 N 
ATOM     24  C   UNL     1       3.575  -5.866  24.894  0.00  0.00    -0.096 C 
ATOM     25  H   UNL     1       4.422  -6.962  26.469  0.00  0.00    -0.082 HD
ATOM     26  C   UNL     1       5.262  -4.992  26.515  0.00  0.00    -0.064 C 
ATOM     27  C   UNL     1       5.756  -5.096  27.984  0.00  0.00    +0.066 C 
ENDBRANCH  19  20
ENDBRANCH  18  19
ENDBRANCH  14  15
ENDBRANCH  12  13
TORSDOF 6
ENDMDL
MODEL 2
REMARK VINA RESULT:      -8.2      1.403      2.064
REMARK  Name = C:\Users\Docking\Desktop\test protocol\1iep_ligandH.pdb
REMARK  8 active torsions:
REMARK  status: ('A' for Active; 'I' for Inactive)
REMARK    1  A    between atoms: _5  and  _11
REMARK    2  A    between atoms: _19  and  _21
REMARK    3  A    between atoms: _22  and  _66
REMARK    4  A    between atoms: _27  and  _30
REMARK    5  A    between atoms: _32  and  _33
REMARK    6  A    between atoms: _38  and  _43
REMARK    7  A    between atoms: _43  and  _46
REMARK    8  A    between atoms: _53  and  _55
REMARK                            x       y       z     vdW  Elec       q    Type
REMARK                         _______ _______ _______ _____ _____    ______ ____
ROOT
ATOM     10  C   UNL     1       8.226   4.481  33.108  0.00  0.00    +0.038 A 
ATOM     11  C   UNL     1       7.696   3.285  32.562  0.00  0.00    +0.047 A 
ATOM     12  C   UNL     1       7.619   2.066  33.353  0.00  0.00    +0.035 A 
ATOM     32  C   UNL     1       8.090   2.103  34.698  0.00  0.00    +0.024 A 
ATOM     33  C   UNL     1       8.634   3.310  35.268  0.00  0.00    +0.007 A 
ATOM     34  C   UNL     1       8.714   4.515  34.492  0.00  0.00    -0.029 A 
ATOM     35  C   UNL     1       9.312   5.779  35.153  0.00  0.00    +0.045 C 
ENDROOT
BRANCH  10   9
ATOM      4  C   UNL     1       9.761   6.868  29.236  0.00  0.00    +0.077 A 
ATOM      5  C   UNL     1      10.552   5.757  28.792  0.00  0.00    +0.048 A 
ATOM      6  C   UNL     1      10.543   4.592  29.592  0.00  0.00    +0.116 A 
ATOM      7  N   UNL     1       9.794   4.553  30.748  0.00  0.00    -0.223 NA
ATOM      8  C   UNL     1       9.043   5.643  31.149  0.00  0.00    +0.220 A 
ATOM      9  N   UNL     1       8.276   5.622  32.303  0.00  0.00    -0.283 N 
ATOM     36  H   UNL     1       7.741   6.449  32.568  0.00  0.00    +0.155 HD
ATOM     37  N   UNL     1       9.036   6.767  30.403  0.00  0.00    -0.214 NA
BRANCH   4   3
ATOM      1  C   UNL     1       8.494  10.321  27.905  0.00  0.00    +0.020 A 
ATOM      2  C   UNL     1       8.538   9.079  28.642  0.00  0.00    +0.013 A 
ATOM      3  C   UNL     1       9.665   8.166  28.497  0.00  0.00    +0.019 A 
ATOM     38  C   UNL     1      10.741   8.544  27.593  0.00  0.00    +0.120 A 
ATOM     39  N   UNL     1      10.671   9.746  26.896  0.00  0.00    -0.263 NA
ATOM     40  C   UNL     1       9.591  10.631  27.026  0.00  0.00    +0.111 A 
ENDBRANCH   4   3
ENDBRANCH  10   9
BRANCH  12  13
ATOM     13  N   UNL     1       7.098   0.819  32.850  0.00  0.00    -0.281 N 
ATOM     14  C   UNL     1       5.778   0.494  32.583  0.00  0.00    +0.248 C 
ATOM     30  O   UNL     1       4.817   1.159  32.939  0.00  0.00    -0.270 OA
ATOM     31  H   UNL     1       7.785   0.088  32.669  0.00  0.00    +0.155 HD
BRANCH  14  15
ATOM     15  C   UNL     1       5.483  -0.758  31.822  0.00  0.00    +0.037 A 
ATOM     16  C   UNL     1       6.199  -2.005  32.102  0.00  0.00    +0.013 A 
ATOM     17  C   UNL     1       5.907  -3.194  31.342  0.00  0.00    +0.005 A 
ATOM     18  C   UNL     1       4.891  -3.141  30.293  0.00  0.00    -0.033 A 
ATOM     28  C   UNL     1       4.192  -1.893  30.039  0.00  0.00    +0.005 A 
ATOM     29  C   UNL     1       4.477  -0.725  30.782  0.00  0.00    +0.013 A 
BRANCH  18  19
ATOM     19  C   UNL     1       4.530  -4.356  29.418  0.00  0.00    +0.119 C 
BRANCH  19  20
ATOM     20  N   UNL     1       4.197  -5.631  30.121  0.00  0.00    -0.302 NA
ATOM     21  C   UNL     1       5.331  -6.654  30.022  0.00  0.00    +0.066 C 
ATOM     22  C   UNL     1       4.976  -7.974  30.782  0.00  0.00    -0.064 C 
ATOM     23  N   UNL     1       3.676  -8.549  30.217  0.00  0.00    +0.379 N 
ATOM     24  C   UNL     1       3.369  -9.820  30.890  0.00  0.00    -0.096 C 
ATOM     25  H   UNL     1       3.845  -8.770  29.138  0.00  0.00    -0.082 HD
ATOM     26  C   UNL     1       2.543  -7.537  30.309  0.00  0.00    -0.064 C 
ATOM     27  C   UNL     1       2.919  -6.219  29.576  0.00  0.00    +0.066 C 
ENDBRANCH  19  20
ENDBRANCH  18  19
ENDBRANCH  14  15
ENDBRANCH  12  13
TORSDOF 6
ENDMDL
MODEL 3
REMARK VINA RESULT:      -8.1      5.606     10.487
REMARK  Name = C:\Users\Docking\Desktop\test protocol\1iep_ligandH.pdb
REMARK  8 active torsions:
REMARK  status: ('A' for Active; 'I' for Inactive)
REMARK    1  A    between atoms: _5  and  _11
REMARK    2  A    between atoms: _19  and  _21
REMARK    3  A    between atoms: _22  and  _66
REMARK    4  A    between atoms: _27  and  _30
REMARK    5  A    between atoms: _32  and  _33
REMARK    6  A    between atoms: _38  and  _43
REMARK    7  A    between atoms: _43  and  _46
REMARK    8  A    between atoms: _53  and  _55
REMARK                            x       y       z     vdW  Elec       q    Type
REMARK                         _______ _______ _______ _____ _____    ______ ____
ROOT
ATOM     10  C   UNL     1       7.508   3.993  34.256  0.00  0.00    +0.038 A 
ATOM     11  C   UNL     1       8.295   3.904  35.432  0.00  0.00    +0.047 A 
ATOM     12  C   UNL     1       8.030   2.889  36.440  0.00  0.00    +0.035 A 
ATOM     32  C   UNL     1       6.956   1.979  36.216  0.00  0.00    +0.024 A 
ATOM     33  C   UNL     1       6.145   2.057  35.026  0.00  0.00    +0.007 A 
ATOM     34  C   UNL     1       6.401   3.057  34.030  0.00  0.00    -0.029 A 
ATOM     35  C   UNL     1       5.495   3.097  32.777  0.00  0.00    +0.045 C 
ENDROOT
BRANCH  10   9
ATOM      4  C   UNL     1       9.634   5.517  30.231  0.00  0.00    +0.077 A 
ATOM      5  C   UNL     1      10.220   4.231  29.984  0.00  0.00    +0.048 A 
ATOM      6  C   UNL     1       9.956   3.206  30.920  0.00  0.00    +0.116 A 
ATOM      7  N   UNL     1       9.163   3.460  32.018  0.00  0.00    -0.223 NA
ATOM      8  C   UNL     1       8.615   4.712  32.228  0.00  0.00    +0.220 A 
ATOM      9  N   UNL     1       7.808   4.987  33.321  0.00  0.00    -0.283 N 
ATOM     36  H   UNL     1       7.428   5.926  33.444  0.00  0.00    +0.155 HD
ATOM     37  N   UNL     1       8.853   5.708  31.349  0.00  0.00    -0.214 NA
BRANCH   4   3
ATOM      1  C   UNL     1      11.146   8.065  27.677  0.00  0.00    +0.020 A 
ATOM      2  C   UNL     1      11.018   6.906  28.530  0.00  0.00    +0.013 A 
ATOM      3  C   UNL     1       9.819   6.699  29.332  0.00  0.00    +0.019 A 
ATOM     38  C   UNL     1       8.758   7.692  29.247  0.00  0.00    +0.120 A 
ATOM     39  N   UNL     1       8.910   8.799  28.418  0.00  0.00    -0.263 NA
ATOM     40  C   UNL     1      10.060   9.009  27.643  0.00  0.00    +0.111 A 
ENDBRANCH   4   3
ENDBRANCH  10   9
BRANCH  12  13
ATOM     13  N   UNL     1       8.790   2.755  37.658  0.00  0.00    -0.281 N 
ATOM     14  C   UNL     1       8.577   3.394  38.869  0.00  0.00    +0.248 C 
ATOM     30  O   UNL     1       7.825   4.344  39.027  0.00  0.00    -0.270 OA
ATOM     31  H   UNL     1       9.581   2.112  37.623  0.00  0.00    +0.155 HD
BRANCH  14  15
ATOM     15  C   UNL     1       9.319   2.917  40.076  0.00  0.00    +0.037 A 
ATOM     16  C   UNL     1       8.960   1.662  40.742  0.00  0.00    +0.013 A 
ATOM     17  C   UNL     1       9.680   1.234  41.915  0.00  0.00    +0.005 A 
ATOM     18  C   UNL     1      10.768   2.062  42.429  0.00  0.00    -0.033 A 
ATOM     28  C   UNL     1      11.107   3.299  41.746  0.00  0.00    +0.005 A 
ATOM     29  C   UNL     1      10.402   3.723  40.597  0.00  0.00    +0.013 A 
BRANCH  18  19
ATOM     19  C   UNL     1      11.577   1.693  43.687  0.00  0.00    +0.119 C 
BRANCH  19  20
ATOM     20  N   UNL     1      12.977   1.216  43.484  0.00  0.00    -0.302 NA
ATOM     21  C   UNL     1      13.984   2.370  43.494  0.00  0.00    +0.066 C 
ATOM     22  C   UNL     1      15.447   1.851  43.303  0.00  0.00    -0.064 C 
ATOM     23  N   UNL     1      15.538   1.063  41.995  0.00  0.00    +0.379 N 
ATOM     24  C   UNL     1      16.925   0.622  41.784  0.00  0.00    -0.096 C 
ATOM     25  H   UNL     1      15.273   1.756  41.163  0.00  0.00    -0.082 HD
ATOM     26  C   UNL     1      14.538  -0.085  41.976  0.00  0.00    -0.064 C 
ATOM     27  C   UNL     1      13.092   0.439  42.196  0.00  0.00    +0.066 C 
ENDBRANCH  19  20
ENDBRANCH  18  19
ENDBRANCH  14  15
ENDBRANCH  12  13
TORSDOF 6
ENDMDL
MODEL 4
REMARK VINA RESULT:      -8.0      5.168     10.866
REMARK  Name = C:\Users\Docking\Desktop\test protocol\1iep_ligandH.pdb
REMARK  8 active torsions:
REMARK  status: ('A' for Active; 'I' for Inactive)
REMARK    1  A    between atoms: _5  and  _11
REMARK    2  A    between atoms: _19  and  _21
REMARK    3  A    between atoms: _22  and  _66
REMARK    4  A    between atoms: _27  and  _30
REMARK    5  A    between atoms: _32  and  _33
REMARK    6  A    between atoms: _38  and  _43
REMARK    7  A    between atoms: _43  and  _46
REMARK    8  A    between atoms: _53  and  _55
REMARK                            x       y       z     vdW  Elec       q    Type
REMARK                         _______ _______ _______ _____ _____    ______ ____
ROOT
ATOM     10  C   UNL     1       7.545   4.189  32.518  0.00  0.00    +0.038 A 
ATOM     11  C   UNL     1       7.865   4.308  33.895  0.00  0.00    +0.047 A 
ATOM     12  C   UNL     1       7.797   3.159  34.784  0.00  0.00    +0.035 A 
ATOM     32  C   UNL     1       7.403   1.903  34.237  0.00  0.00    +0.024 A 
ATOM     33  C   UNL     1       7.073   1.765  32.840  0.00  0.00    +0.007 A 
ATOM     34  C   UNL     1       7.135   2.895  31.959  0.00  0.00    -0.029 A 
ATOM     35  C   UNL     1       6.765   2.691  30.471  0.00  0.00    +0.045 C 
ENDROOT
BRANCH  10   9
ATOM      4  C   UNL     1       9.777   6.908  29.252  0.00  0.00    +0.077 A 
ATOM      5  C   UNL     1      10.886   6.002  29.169  0.00  0.00    +0.048 A 
ATOM      6  C   UNL     1      10.847   4.852  29.989  0.00  0.00    +0.116 A 
ATOM      7  N   UNL     1       9.773   4.634  30.825  0.00  0.00    -0.223 NA
ATOM      8  C   UNL     1       8.720   5.528  30.882  0.00  0.00    +0.220 A 
ATOM      9  N   UNL     1       7.627   5.325  31.709  0.00  0.00    -0.283 N 
ATOM     36  H   UNL     1       6.874   6.012  31.728  0.00  0.00    +0.155 HD
ATOM     37  N   UNL     1       8.735   6.635  30.110  0.00  0.00    -0.214 NA
BRANCH   4   3
ATOM      1  C   UNL     1       8.447  10.235  27.683  0.00  0.00    +0.020 A 
ATOM      2  C   UNL     1       8.499   9.032  28.480  0.00  0.00    +0.013 A 
ATOM      3  C   UNL     1       9.670   8.165  28.446  0.00  0.00    +0.019 A 
ATOM     38  C   UNL     1      10.782   8.549  27.588  0.00  0.00    +0.120 A 
ATOM     39  N   UNL     1      10.703   9.713  26.830  0.00  0.00    -0.263 NA
ATOM     40  C   UNL     1       9.580  10.553  26.854  0.00  0.00    +0.111 A 
ENDBRANCH   4   3
ENDBRANCH  10   9
BRANCH  12  13
ATOM     13  N   UNL     1       8.103   3.220  36.192  0.00  0.00    -0.281 N 
ATOM     14  C   UNL     1       9.339   3.407  36.788  0.00  0.00    +0.248 C 
ATOM     30  O   UNL     1      10.408   3.337  36.199  0.00  0.00    -0.270 OA
ATOM     31  H   UNL     1       7.311   3.112  36.826  0.00  0.00    +0.155 HD
BRANCH  14  15
ATOM     15  C   UNL     1       9.398   3.701  38.252  0.00  0.00    +0.037 A 
ATOM     16  C   UNL     1      10.549   3.296  39.063  0.00  0.00    +0.013 A 
ATOM     17  C   UNL     1      10.573   3.577  40.477  0.00  0.00    +0.005 A 
ATOM     18  C   UNL     1       9.440   4.268  41.089  0.00  0.00    -0.033 A 
ATOM     28  C   UNL     1       8.313   4.662  40.260  0.00  0.00    +0.005 A 
ATOM     29  C   UNL     1       8.286   4.388  38.874  0.00  0.00    +0.013 A 
BRANCH  18  19
ATOM     19  C   UNL     1       9.371   4.589  42.593  0.00  0.00    +0.119 C 
BRANCH  19  20
ATOM     20  N   UNL     1       9.789   5.958  43.020  0.00  0.00    -0.302 NA
ATOM     21  C   UNL     1       8.876   7.043  42.444  0.00  0.00    +0.066 C 
ATOM     22  C   UNL     1       9.315   8.467  42.918  0.00  0.00    -0.064 C 
ATOM     23  N   UNL     1      10.770   8.711  42.513  0.00  0.00    +0.379 N 
ATOM     24  C   UNL     1      11.167  10.071  42.907  0.00  0.00    -0.096 C 
ATOM     25  H   UNL     1      10.825   8.651  41.402  0.00  0.00    -0.082 HD
ATOM     26  C   UNL     1      11.684   7.634  43.080  0.00  0.00    -0.064 C 
ATOM     27  C   UNL     1      11.222   6.221  42.627  0.00  0.00    +0.066 C 
ENDBRANCH  19  20
ENDBRANCH  18  19
ENDBRANCH  14  15
ENDBRANCH  12  13
TORSDOF 6
ENDMDL
MODEL 5
REMARK VINA RESULT:      -7.9      4.892      9.924
REMARK  Name = C:\Users\Docking\Desktop\test protocol\1iep_ligandH.pdb
REMARK  8 active torsions:
REMARK  status: ('A' for Active; 'I' for Inactive)
REMARK    1  A    between atoms: _5  and  _11
REMARK    2  A    between atoms: _19  and  _21
REMARK    3  A    between atoms: _22  and  _66
REMARK    4  A    between atoms: _27  and  _30
REMARK    5  A    between atoms: _32  and  _33
REMARK    6  A    between atoms: _38  and  _43
REMARK    7  A    between atoms: _43  and  _46
REMARK    8  A    between atoms: _53  and  _55
REMARK                            x       y       z     vdW  Elec       q    Type
REMARK                         _______ _______ _______ _____ _____    ______ ____
ROOT
ATOM     10  C   UNL     1       6.601   3.779  32.553  0.00  0.00    +0.038 A 
ATOM     11  C   UNL     1       7.065   3.731  33.892  0.00  0.00    +0.047 A 
ATOM     12  C   UNL     1       6.731   2.616  34.764  0.00  0.00    +0.035 A 
ATOM     32  C   UNL     1       5.925   1.565  34.238  0.00  0.00    +0.024 A 
ATOM     33  C   UNL     1       5.444   1.598  32.879  0.00  0.00    +0.007 A 
ATOM     34  C   UNL     1       5.768   2.696  32.015  0.00  0.00    -0.029 A 
ATOM     35  C   UNL     1       5.220   2.682  30.569  0.00  0.00    +0.045 C 
ENDROOT
BRANCH  10   9
ATOM      4  C   UNL     1       9.618   6.085  29.616  0.00  0.00    +0.077 A 
ATOM      5  C   UNL     1      10.589   5.032  29.690  0.00  0.00    +0.048 A 
ATOM      6  C   UNL     1      10.277   3.917  30.501  0.00  0.00    +0.116 A 
ATOM      7  N   UNL     1       9.079   3.870  31.181  0.00  0.00    -0.223 NA
ATOM      8  C   UNL     1       8.165   4.904  31.090  0.00  0.00    +0.220 A 
ATOM      9  N   UNL     1       6.952   4.874  31.759  0.00  0.00    -0.283 N 
ATOM     36  H   UNL     1       6.308   5.660  31.671  0.00  0.00    +0.155 HD
ATOM     37  N   UNL     1       8.441   5.980  30.323  0.00  0.00    -0.214 NA
BRANCH   4   3
ATOM      1  C   UNL     1       8.989   9.518  27.849  0.00  0.00    +0.020 A 
ATOM      2  C   UNL     1       8.761   8.336  28.649  0.00  0.00    +0.013 A 
ATOM      3  C   UNL     1       9.801   7.326  28.800  0.00  0.00    +0.019 A 
ATOM     38  C   UNL     1      11.070   7.544  28.123  0.00  0.00    +0.120 A 
ATOM     39  N   UNL     1      11.261   8.691  27.358  0.00  0.00    -0.263 NA
ATOM     40  C   UNL     1      10.267   9.669  27.205  0.00  0.00    +0.111 A 
ENDBRANCH   4   3
ENDBRANCH  10   9
BRANCH  12  13
ATOM     13  N   UNL     1       7.166   2.517  36.136  0.00  0.00    -0.281 N 
ATOM     14  C   UNL     1       8.387   2.069  36.611  0.00  0.00    +0.248 C 
ATOM     30  O   UNL     1       9.219   1.481  35.935  0.00  0.00    -0.270 OA
ATOM     31  H   UNL     1       6.491   2.813  36.841  0.00  0.00    +0.155 HD
BRANCH  14  15
ATOM     15  C   UNL     1       8.729   2.293  38.049  0.00  0.00    +0.037 A 
ATOM     16  C   UNL     1       8.109   1.496  39.111  0.00  0.00    +0.013 A 
ATOM     17  C   UNL     1       8.443   1.744  40.491  0.00  0.00    +0.005 A 
ATOM     18  C   UNL     1       9.404   2.795  40.816  0.00  0.00    -0.033 A 
ATOM     28  C   UNL     1      10.008   3.568  39.743  0.00  0.00    +0.005 A 
ATOM     29  C   UNL     1       9.682   3.328  38.390  0.00  0.00    +0.013 A 
BRANCH  18  19
ATOM     19  C   UNL     1       9.804   3.144  42.262  0.00  0.00    +0.119 C 
BRANCH  19  20
ATOM     20  N   UNL     1      11.104   2.603  42.762  0.00  0.00    -0.302 NA
ATOM     21  C   UNL     1      12.199   3.674  42.788  0.00  0.00    +0.066 C 
ATOM     22  C   UNL     1      13.545   3.097  43.334  0.00  0.00    -0.064 C 
ATOM     23  N   UNL     1      13.973   1.906  42.474  0.00  0.00    +0.379 N 
ATOM     24  C   UNL     1      15.268   1.398  42.949  0.00  0.00    -0.096 C 
ATOM     25  H   UNL     1      14.116   2.276  41.432  0.00  0.00    -0.082 HD
ATOM     26  C   UNL     1      12.889   0.838  42.440  0.00  0.00    -0.064 C 
ATOM     27  C   UNL     1      11.547   1.429  41.924  0.00  0.00    +0.066 C 
ENDBRANCH  19  20
ENDBRANCH  18  19
ENDBRANCH  14  15
ENDBRANCH  12  13
TORSDOF 6
ENDMDL
