MODEL 1
REMARK VINA RESULT:      -8.0      0.000      0.000
REMARK  Name = C:\Users\Docking\Desktop\test protocol\1iep_ligandH.pdb
REMARK  8 active torsions:
REMARK  status: ('A' for Active; 'I' for Inactive)
REMARK    1  A    between atoms: _5  and  _11
REMARK    2  A    between atoms: _19  and  _21
REMARK    3  A    between atoms: _22  and  _66
REMARK    4  A    between atoms: _27  and  _30
REMARK    5  A    between atoms: _32  and  _33
REMARK    6  A    between atoms: _38  and  _43
REMARK    7  A    between atoms: _43  and  _46
REMARK    8  A    between atoms: _53  and  _55
REMARK                            x       y       z     vdW  Elec       q    Type
REMARK                         _______ _______ _______ _____ _____    ______ ____
ROOT
ATOM     10  C   UNL     1      17.466  -4.380  17.666  0.00  0.00    +0.038 A 
ATOM     11  C   UNL     1      17.975  -3.127  17.238  0.00  0.00    +0.047 A 
ATOM     12  C   UNL     1      17.907  -1.954  18.095  0.00  0.00    +0.035 A 
ATOM     32  C   UNL     1      17.317  -2.094  19.385  0.00  0.00    +0.024 A 
ATOM     33  C   UNL     1      16.794  -3.360  19.837  0.00  0.00    +0.007 A 
ATOM     34  C   UNL     1      16.856  -4.519  18.994  0.00  0.00    -0.029 A 
ATOM     35  C   UNL     1      16.273  -5.849  19.527  0.00  0.00    +0.045 C 
ENDROOT
BRANCH  10   9
ATOM      4  C   UNL     1      16.167  -6.767  13.710  0.00  0.00    +0.077 A 
ATOM      5  C   UNL     1      15.207  -5.765  13.349  0.00  0.00    +0.048 A 
ATOM      6  C   UNL     1      15.073  -4.654  14.212  0.00  0.00    +0.116 A 
ATOM      7  N   UNL     1      15.847  -4.563  15.348  0.00  0.00    -0.223 NA
ATOM      8  C   UNL     1      16.763  -5.548  15.668  0.00  0.00    +0.220 A 
ATOM      9  N   UNL     1      17.557  -5.473  16.802  0.00  0.00    -0.283 N 
ATOM     36  H   UNL     1      18.215  -6.224  17.007  0.00  0.00    +0.155 HD
ATOM     37  N   UNL     1      16.908  -6.620  14.861  0.00  0.00    -0.214 NA
BRANCH   4   3
ATOM      1  C   UNL     1      15.729  -9.785  11.260  0.00  0.00    +0.020 A 
ATOM      2  C   UNL     1      15.427  -8.596  12.023  0.00  0.00    +0.013 A 
ATOM      3  C   UNL     1      16.427  -7.998  12.898  0.00  0.00    +0.019 A 
ATOM     38  C   UNL     1      17.734  -8.634  12.979  0.00  0.00    +0.120 A 
ATOM     39  N   UNL     1      17.995  -9.779  12.234  0.00  0.00    -0.263 NA
ATOM     40  C   UNL     1      17.040 -10.364  11.389  0.00  0.00    +0.111 A 
ENDBRANCH   4   3
ENDBRANCH  10   9
BRANCH  12  13
ATOM     13  N   UNL     1      18.399  -0.655  17.711  0.00  0.00    -0.281 N 
ATOM     14  C   UNL     1      19.676  -0.317  17.293  0.00  0.00    +0.248 C 
ATOM     30  O   UNL     1      20.651  -1.048  17.391  0.00  0.00    -0.270 OA
ATOM     31  H   UNL     1      17.725   0.109  17.752  0.00  0.00    +0.155 HD
BRANCH  14  15
ATOM     15  C   UNL     1      19.907   1.032  16.693  0.00  0.00    +0.037 A 
ATOM     16  C   UNL     1      20.712   1.197  15.481  0.00  0.00    +0.013 A 
ATOM     17  C   UNL     1      20.933   2.511  14.932  0.00  0.00    +0.005 A 
ATOM     18  C   UNL     1      20.345   3.672  15.596  0.00  0.00    -0.033 A 
ATOM     28  C   UNL     1      19.545   3.480  16.794  0.00  0.00    +0.005 A 
ATOM     29  C   UNL     1      19.328   2.193  17.336  0.00  0.00    +0.013 A 
BRANCH  18  19
ATOM     19  C   UNL     1      20.545   5.114  15.093  0.00  0.00    +0.119 C 
BRANCH  19  20
ATOM     20  N   UNL     1      20.850   5.296  13.642  0.00  0.00    -0.302 NA
ATOM     21  C   UNL     1      21.398   6.693  13.341  0.00  0.00    +0.066 C 
ATOM     22  C   UNL     1      21.732   6.859  11.822  0.00  0.00    -0.064 C 
ATOM     23  N   UNL     1      20.477   6.579  10.993  0.00  0.00    +0.379 N 
ATOM     24  C   UNL     1      20.773   6.790   9.569  0.00  0.00    -0.096 C 
ATOM     25  H   UNL     1      19.702   7.323  11.292  0.00  0.00    -0.082 HD
ATOM     26  C   UNL     1      19.924   5.192  11.289  0.00  0.00    -0.064 C 
ATOM     27  C   UNL     1      19.623   5.029  12.805  0.00  0.00    +0.066 C 
ENDBRANCH  19  20
ENDBRANCH  18  19
ENDBRANCH  14  15
ENDBRANCH  12  13
TORSDOF 6
ENDMDL
MODEL 2
REMARK VINA RESULT:      -8.0      2.903      4.738
REMARK  Name = C:\Users\Docking\Desktop\test protocol\1iep_ligandH.pdb
REMARK  8 active torsions:
REMARK  status: ('A' for Active; 'I' for Inactive)
REMARK    1  A    between atoms: _5  and  _11
REMARK    2  A    between atoms: _19  and  _21
REMARK    3  A    between atoms: _22  and  _66
REMARK    4  A    between atoms: _27  and  _30
REMARK    5  A    between atoms: _32  and  _33
REMARK    6  A    between atoms: _38  and  _43
REMARK    7  A    between atoms: _43  and  _46
REMARK    8  A    between atoms: _53  and  _55
REMARK                            x       y       z     vdW  Elec       q    Type
REMARK                         _______ _______ _______ _____ _____    ______ ____
ROOT
ATOM     10  C   UNL     1      20.838  -1.940  14.741  0.00  0.00    +0.038 A 
ATOM     11  C   UNL     1      20.710  -0.668  14.126  0.00  0.00    +0.047 A 
ATOM     12  C   UNL     1      21.396   0.498  14.660  0.00  0.00    +0.035 A 
ATOM     32  C   UNL     1      22.207   0.332  15.820  0.00  0.00    +0.024 A 
ATOM     33  C   UNL     1      22.348  -0.953  16.458  0.00  0.00    +0.007 A 
ATOM     34  C   UNL     1      21.671  -2.106  15.938  0.00  0.00    -0.029 A 
ATOM     35  C   UNL     1      21.853  -3.458  16.667  0.00  0.00    +0.045 C 
ENDROOT
BRANCH  10   9
ATOM      4  C   UNL     1      16.867  -4.553  14.076  0.00  0.00    +0.077 A 
ATOM      5  C   UNL     1      16.091  -3.698  14.926  0.00  0.00    +0.048 A 
ATOM      6  C   UNL     1      16.752  -2.601  15.522  0.00  0.00    +0.116 A 
ATOM      7  N   UNL     1      18.091  -2.384  15.277  0.00  0.00    -0.223 NA
ATOM      8  C   UNL     1      18.811  -3.229  14.453  0.00  0.00    +0.220 A 
ATOM      9  N   UNL     1      20.156  -3.026  14.186  0.00  0.00    -0.283 N 
ATOM     36  H   UNL     1      20.654  -3.676  13.579  0.00  0.00    +0.155 HD
ATOM     37  N   UNL     1      18.203  -4.285  13.873  0.00  0.00    -0.214 NA
BRANCH   4   3
ATOM      1  C   UNL     1      14.394  -7.143  12.501  0.00  0.00    +0.020 A 
ATOM      2  C   UNL     1      14.880  -5.969  13.189  0.00  0.00    +0.013 A 
ATOM      3  C   UNL     1      16.310  -5.751  13.372  0.00  0.00    +0.019 A 
ATOM     38  C   UNL     1      17.228  -6.749  12.842  0.00  0.00    +0.120 A 
ATOM     39  N   UNL     1      16.730  -7.870  12.186  0.00  0.00    -0.263 NA
ATOM     40  C   UNL     1      15.357  -8.091  12.006  0.00  0.00    +0.111 A 
ENDBRANCH   4   3
ENDBRANCH  10   9
BRANCH  12  13
ATOM     13  N   UNL     1      21.297   1.816  14.083  0.00  0.00    -0.281 N 
ATOM     14  C   UNL     1      20.664   2.930  14.608  0.00  0.00    +0.248 C 
ATOM     30  O   UNL     1      19.900   2.906  15.562  0.00  0.00    -0.270 OA
ATOM     31  H   UNL     1      21.749   1.943  13.177  0.00  0.00    +0.155 HD
BRANCH  14  15
ATOM     15  C   UNL     1      20.904   4.263  13.975  0.00  0.00    +0.037 A 
ATOM     16  C   UNL     1      19.798   5.183  13.698  0.00  0.00    +0.013 A 
ATOM     17  C   UNL     1      20.055   6.455  13.071  0.00  0.00    +0.005 A 
ATOM     18  C   UNL     1      21.426   6.815  12.717  0.00  0.00    -0.033 A 
ATOM     28  C   UNL     1      22.505   5.886  13.008  0.00  0.00    +0.005 A 
ATOM     29  C   UNL     1      22.257   4.637  13.622  0.00  0.00    +0.013 A 
BRANCH  18  19
ATOM     19  C   UNL     1      21.790   8.142  12.026  0.00  0.00    +0.119 C 
BRANCH  19  20
ATOM     20  N   UNL     1      22.503   9.167  12.846  0.00  0.00    -0.302 NA
ATOM     21  C   UNL     1      23.992   8.844  13.001  0.00  0.00    +0.066 C 
ATOM     22  C   UNL     1      24.727   9.938  13.842  0.00  0.00    -0.064 C 
ATOM     23  N   UNL     1      24.055  10.063  15.210  0.00  0.00    +0.379 N 
ATOM     24  C   UNL     1      24.779  11.049  16.025  0.00  0.00    -0.096 C 
ATOM     25  H   UNL     1      24.140   9.075  15.720  0.00  0.00    -0.082 HD
ATOM     26  C   UNL     1      22.573  10.381  15.066  0.00  0.00    -0.064 C 
ATOM     27  C   UNL     1      21.858   9.303  14.203  0.00  0.00    +0.066 C 
ENDBRANCH  19  20
ENDBRANCH  18  19
ENDBRANCH  14  15
ENDBRANCH  12  13
TORSDOF 6
ENDMDL
MODEL 3
REMARK VINA RESULT:      -8.0      2.306     12.376
REMARK  Name = C:\Users\Docking\Desktop\test protocol\1iep_ligandH.pdb
REMARK  8 active torsions:
REMARK  status: ('A' for Active; 'I' for Inactive)
REMARK    1  A    between atoms: _5  and  _11
REMARK    2  A    between atoms: _19  and  _21
REMARK    3  A    between atoms: _22  and  _66
REMARK    4  A    between atoms: _27  and  _30
REMARK    5  A    between atoms: _32  and  _33
REMARK    6  A    between atoms: _38  and  _43
REMARK    7  A    between atoms: _43  and  _46
REMARK    8  A    between atoms: _53  and  _55
REMARK                            x       y       z     vdW  Elec       q    Type
REMARK                         _______ _______ _______ _____ _____    ______ ____
ROOT
ATOM     10  C   UNL     1      20.595   5.604  13.180  0.00  0.00    +0.038 A 
ATOM     11  C   UNL     1      20.214   4.278  13.511  0.00  0.00    +0.047 A 
ATOM     12  C   UNL     1      20.835   3.573  14.622  0.00  0.00    +0.035 A 
ATOM     32  C   UNL     1      21.837   4.249  15.376  0.00  0.00    +0.024 A 
ATOM     33  C   UNL     1      22.237   5.597  15.053  0.00  0.00    +0.007 A 
ATOM     34  C   UNL     1      21.630   6.296  13.956  0.00  0.00    -0.029 A 
ATOM     35  C   UNL     1      22.102   7.737  13.651  0.00  0.00    +0.045 C 
ENDROOT
BRANCH  10   9
ATOM      4  C   UNL     1      20.419   6.941   8.573  0.00  0.00    +0.077 A 
ATOM      5  C   UNL     1      21.700   6.360   8.294  0.00  0.00    +0.048 A 
ATOM      6  C   UNL     1      22.375   5.732   9.365  0.00  0.00    +0.116 A 
ATOM      7  N   UNL     1      21.802   5.694  10.618  0.00  0.00    -0.223 NA
ATOM      8  C   UNL     1      20.565   6.267  10.853  0.00  0.00    +0.220 A 
ATOM      9  N   UNL     1      19.966   6.234  12.103  0.00  0.00    -0.283 N 
ATOM     36  H   UNL     1      19.056   6.674  12.238  0.00  0.00    +0.155 HD
ATOM     37  N   UNL     1      19.901   6.873   9.848  0.00  0.00    -0.214 NA
BRANCH   4   3
ATOM      1  C   UNL     1      17.364   8.314   6.554  0.00  0.00    +0.020 A 
ATOM      2  C   UNL     1      18.125   7.626   7.570  0.00  0.00    +0.013 A 
ATOM      3  C   UNL     1      19.582   7.637   7.545  0.00  0.00    +0.019 A 
ATOM     38  C   UNL     1      20.243   8.361   6.470  0.00  0.00    +0.120 A 
ATOM     39  N   UNL     1      19.484   9.013   5.504  0.00  0.00    -0.263 NA
ATOM     40  C   UNL     1      18.081   9.008   5.517  0.00  0.00    +0.111 A 
ENDBRANCH   4   3
ENDBRANCH  10   9
BRANCH  12  13
ATOM     13  N   UNL     1      20.496   2.224  15.000  0.00  0.00    -0.281 N 
ATOM     14  C   UNL     1      20.039   1.773  16.228  0.00  0.00    +0.248 C 
ATOM     30  O   UNL     1      20.056   2.432  17.256  0.00  0.00    -0.270 OA
ATOM     31  H   UNL     1      20.605   1.515  14.275  0.00  0.00    +0.155 HD
BRANCH  14  15
ATOM     15  C   UNL     1      19.498   0.383  16.331  0.00  0.00    +0.037 A 
ATOM     16  C   UNL     1      19.878  -0.653  15.367  0.00  0.00    +0.013 A 
ATOM     17  C   UNL     1      19.328  -1.981  15.480  0.00  0.00    +0.005 A 
ATOM     18  C   UNL     1      18.394  -2.280  16.562  0.00  0.00    -0.033 A 
ATOM     28  C   UNL     1      18.038  -1.235  17.507  0.00  0.00    +0.005 A 
ATOM     29  C   UNL     1      18.574   0.068  17.399  0.00  0.00    +0.013 A 
BRANCH  18  19
ATOM     19  C   UNL     1      17.742  -3.664  16.746  0.00  0.00    +0.119 C 
BRANCH  19  20
ATOM     20  N   UNL     1      17.237  -4.351  15.520  0.00  0.00    -0.302 NA
ATOM     21  C   UNL     1      15.944  -3.718  14.998  0.00  0.00    +0.066 C 
ATOM     22  C   UNL     1      15.442  -4.435  13.702  0.00  0.00    -0.064 C 
ATOM     23  N   UNL     1      15.239  -5.923  13.991  0.00  0.00    +0.379 N 
ATOM     24  C   UNL     1      14.713  -6.588  12.791  0.00  0.00    -0.096 C 
ATOM     25  H   UNL     1      14.469  -6.010  14.792  0.00  0.00    -0.082 HD
ATOM     26  C   UNL     1      16.520  -6.559  14.513  0.00  0.00    -0.064 C 
ATOM     27  C   UNL     1      17.026  -5.821  15.784  0.00  0.00    +0.066 C 
ENDBRANCH  19  20
ENDBRANCH  18  19
ENDBRANCH  14  15
ENDBRANCH  12  13
TORSDOF 6
ENDMDL
MODEL 4
REMARK VINA RESULT:      -8.0      1.431      2.103
REMARK  Name = C:\Users\Docking\Desktop\test protocol\1iep_ligandH.pdb
REMARK  8 active torsions:
REMARK  status: ('A' for Active; 'I' for Inactive)
REMARK    1  A    between atoms: _5  and  _11
REMARK    2  A    between atoms: _19  and  _21
REMARK    3  A    between atoms: _22  and  _66
REMARK    4  A    between atoms: _27  and  _30
REMARK    5  A    between atoms: _32  and  _33
REMARK    6  A    between atoms: _38  and  _43
REMARK    7  A    between atoms: _43  and  _46
REMARK    8  A    between atoms: _53  and  _55
REMARK                            x       y       z     vdW  Elec       q    Type
REMARK                         _______ _______ _______ _____ _____    ______ ____
ROOT
ATOM     10  C   UNL     1      17.500  -4.631  17.109  0.00  0.00    +0.038 A 
ATOM     11  C   UNL     1      18.038  -3.413  16.619  0.00  0.00    +0.047 A 
ATOM     12  C   UNL     1      18.003  -2.199  17.419  0.00  0.00    +0.035 A 
ATOM     32  C   UNL     1      17.415  -2.262  18.716  0.00  0.00    +0.024 A 
ATOM     33  C   UNL     1      16.862  -3.490  19.229  0.00  0.00    +0.007 A 
ATOM     34  C   UNL     1      16.892  -4.691  18.443  0.00  0.00    -0.029 A 
ATOM     35  C   UNL     1      16.278  -5.978  19.041  0.00  0.00    +0.045 C 
ENDROOT
BRANCH  10   9
ATOM      4  C   UNL     1      16.113  -7.180  13.286  0.00  0.00    +0.077 A 
ATOM      5  C   UNL     1      15.169  -6.177  12.886  0.00  0.00    +0.048 A 
ATOM      6  C   UNL     1      15.066  -5.024  13.695  0.00  0.00    +0.116 A 
ATOM      7  N   UNL     1      15.854  -4.893  14.818  0.00  0.00    -0.223 NA
ATOM      8  C   UNL     1      16.753  -5.880  15.177  0.00  0.00    +0.220 A 
ATOM      9  N   UNL     1      17.561  -5.766  16.298  0.00  0.00    -0.283 N 
ATOM     36  H   UNL     1      18.207  -6.519  16.532  0.00  0.00    +0.155 HD
ATOM     37  N   UNL     1      16.870  -6.992  14.421  0.00  0.00    -0.214 NA
BRANCH   4   3
ATOM      1  C   UNL     1      15.550 -10.383  11.112  0.00  0.00    +0.020 A 
ATOM      2  C   UNL     1      15.277  -9.156  11.825  0.00  0.00    +0.013 A 
ATOM      3  C   UNL     1      16.340  -8.454  12.533  0.00  0.00    +0.019 A 
ATOM     38  C   UNL     1      17.679  -9.024  12.499  0.00  0.00    +0.120 A 
ATOM     39  N   UNL     1      17.911 -10.208  11.805  0.00  0.00    -0.263 NA
ATOM     40  C   UNL     1      16.895 -10.893  11.122  0.00  0.00    +0.111 A 
ENDBRANCH   4   3
ENDBRANCH  10   9
BRANCH  12  13
ATOM     13  N   UNL     1      18.527  -0.932  16.972  0.00  0.00    -0.281 N 
ATOM     14  C   UNL     1      19.854  -0.554  16.851  0.00  0.00    +0.248 C 
ATOM     30  O   UNL     1      20.796  -1.179  17.316  0.00  0.00    -0.270 OA
ATOM     31  H   UNL     1      17.835  -0.229  16.713  0.00  0.00    +0.155 HD
BRANCH  14  15
ATOM     15  C   UNL     1      20.181   0.709  16.122  0.00  0.00    +0.037 A 
ATOM     16  C   UNL     1      19.566   1.985  16.497  0.00  0.00    +0.013 A 
ATOM     17  C   UNL     1      19.886   3.185  15.766  0.00  0.00    +0.005 A 
ATOM     18  C   UNL     1      20.829   3.115  14.652  0.00  0.00    -0.033 A 
ATOM     28  C   UNL     1      21.429   1.837  14.305  0.00  0.00    +0.005 A 
ATOM     29  C   UNL     1      21.116   0.659  15.018  0.00  0.00    +0.013 A 
BRANCH  18  19
ATOM     19  C   UNL     1      21.213   4.341  13.803  0.00  0.00    +0.119 C 
BRANCH  19  20
ATOM     20  N   UNL     1      21.478   5.619  14.528  0.00  0.00    -0.302 NA
ATOM     21  C   UNL     1      20.288   6.580  14.454  0.00  0.00    +0.066 C 
ATOM     22  C   UNL     1      20.575   7.903  15.237  0.00  0.00    -0.064 C 
ATOM     23  N   UNL     1      21.838   8.560  14.678  0.00  0.00    +0.379 N 
ATOM     24  C   UNL     1      22.077   9.833  15.373  0.00  0.00    -0.096 C 
ATOM     25  H   UNL     1      21.650   8.791  13.603  0.00  0.00    -0.082 HD
ATOM     26  C   UNL     1      23.025   7.610  14.745  0.00  0.00    -0.064 C 
ATOM     27  C   UNL     1      22.719   6.288  13.989  0.00  0.00    +0.066 C 
ENDBRANCH  19  20
ENDBRANCH  18  19
ENDBRANCH  14  15
ENDBRANCH  12  13
TORSDOF 6
ENDMDL
MODEL 5
REMARK VINA RESULT:      -8.0      6.475     11.731
REMARK  Name = C:\Users\Docking\Desktop\test protocol\1iep_ligandH.pdb
REMARK  8 active torsions:
REMARK  status: ('A' for Active; 'I' for Inactive)
REMARK    1  A    between atoms: _5  and  _11
REMARK    2  A    between atoms: _19  and  _21
REMARK    3  A    between atoms: _22  and  _66
REMARK    4  A    between atoms: _27  and  _30
REMARK    5  A    between atoms: _32  and  _33
REMARK    6  A    between atoms: _38  and  _43
REMARK    7  A    between atoms: _43  and  _46
REMARK    8  A    between atoms: _53  and  _55
REMARK                            x       y       z     vdW  Elec       q    Type
REMARK                         _______ _______ _______ _____ _____    ______ ____
ROOT
ATOM     10  C   UNL     1      16.731  -3.213  23.316  0.00  0.00    +0.038 A 
ATOM     11  C   UNL     1      16.450  -3.768  22.042  0.00  0.00    +0.047 A 
ATOM     12  C   UNL     1      17.113  -3.275  20.844  0.00  0.00    +0.035 A 
ATOM     32  C   UNL     1      18.059  -2.217  20.982  0.00  0.00    +0.024 A 
ATOM     33  C   UNL     1      18.355  -1.641  22.270  0.00  0.00    +0.007 A 
ATOM     34  C   UNL     1      17.702  -2.121  23.454  0.00  0.00    -0.029 A 
ATOM     35  C   UNL     1      18.054  -1.462  24.808  0.00  0.00    +0.045 C 
ENDROOT
BRANCH  10   9
ATOM      4  C   UNL     1      16.151  -6.510  26.756  0.00  0.00    +0.077 A 
ATOM      5  C   UNL     1      17.251  -7.294  26.272  0.00  0.00    +0.048 A 
ATOM      6  C   UNL     1      17.935  -6.817  25.131  0.00  0.00    +0.116 A 
ATOM      7  N   UNL     1      17.540  -5.643  24.528  0.00  0.00    -0.223 NA
ATOM      8  C   UNL     1      16.474  -4.912  25.019  0.00  0.00    +0.220 A 
ATOM      9  N   UNL     1      16.065  -3.724  24.433  0.00  0.00    -0.283 N 
ATOM     36  H   UNL     1      15.270  -3.218  24.821  0.00  0.00    +0.155 HD
ATOM     37  N   UNL     1      15.804  -5.346  26.106  0.00  0.00    -0.214 NA
BRANCH   4   3
ATOM      1  C   UNL     1      15.085  -7.686  30.331  0.00  0.00    +0.020 A 
ATOM      2  C   UNL     1      15.921  -7.342  29.204  0.00  0.00    +0.013 A 
ATOM      3  C   UNL     1      15.332  -6.880  27.953  0.00  0.00    +0.019 A 
ATOM     38  C   UNL     1      13.883  -6.775  27.876  0.00  0.00    +0.120 A 
ATOM     39  N   UNL     1      13.103  -7.115  28.977  0.00  0.00    -0.263 NA
ATOM     40  C   UNL     1      13.658  -7.563  30.185  0.00  0.00    +0.111 A 
ENDBRANCH   4   3
ENDBRANCH  10   9
BRANCH  12  13
ATOM     13  N   UNL     1      16.863  -3.794  19.522  0.00  0.00    -0.281 N 
ATOM     14  C   UNL     1      15.781  -3.535  18.697  0.00  0.00    +0.248 C 
ATOM     30  O   UNL     1      14.753  -2.981  19.057  0.00  0.00    -0.270 OA
ATOM     31  H   UNL     1      17.569  -4.429  19.150  0.00  0.00    +0.155 HD
BRANCH  14  15
ATOM     15  C   UNL     1      15.844  -3.966  17.267  0.00  0.00    +0.037 A 
ATOM     16  C   UNL     1      15.181  -3.196  16.211  0.00  0.00    +0.013 A 
ATOM     17  C   UNL     1      15.244  -3.643  14.842  0.00  0.00    +0.005 A 
ATOM     18  C   UNL     1      15.975  -4.867  14.521  0.00  0.00    -0.033 A 
ATOM     28  C   UNL     1      16.628  -5.608  15.587  0.00  0.00    +0.005 A 
ATOM     29  C   UNL     1      16.568  -5.173  16.930  0.00  0.00    +0.013 A 
BRANCH  18  19
ATOM     19  C   UNL     1      16.076  -5.429  13.091  0.00  0.00    +0.119 C 
BRANCH  19  20
ATOM     20  N   UNL     1      16.273  -6.903  12.948  0.00  0.00    -0.302 NA
ATOM     21  C   UNL     1      17.647  -7.246  12.367  0.00  0.00    +0.066 C 
ATOM     22  C   UNL     1      17.844  -8.792  12.246  0.00  0.00    -0.064 C 
ATOM     23  N   UNL     1      16.728  -9.379  11.380  0.00  0.00    +0.379 N 
ATOM     24  C   UNL     1      16.943 -10.824  11.216  0.00  0.00    -0.096 C 
ATOM     25  H   UNL     1      16.800  -8.910  10.371  0.00  0.00    -0.082 HD
ATOM     26  C   UNL     1      15.358  -9.041  11.950  0.00  0.00    -0.064 C 
ATOM     27  C   UNL     1      15.183  -7.503  12.094  0.00  0.00    +0.066 C 
ENDBRANCH  19  20
ENDBRANCH  18  19
ENDBRANCH  14  15
ENDBRANCH  12  13
TORSDOF 6
ENDMDL
