MODEL 1
REMARK VINA RESULT:      -8.2      0.000      0.000
REMARK  Name = C:\Users\Docking\Desktop\test protocol\1iep_ligandH.pdb
REMARK  8 active torsions:
REMARK  status: ('A' for Active; 'I' for Inactive)
REMARK    1  A    between atoms: _5  and  _11
REMARK    2  A    between atoms: _19  and  _21
REMARK    3  A    between atoms: _22  and  _66
REMARK    4  A    between atoms: _27  and  _30
REMARK    5  A    between atoms: _32  and  _33
REMARK    6  A    between atoms: _38  and  _43
REMARK    7  A    between atoms: _43  and  _46
REMARK    8  A    between atoms: _53  and  _55
REMARK                            x       y       z     vdW  Elec       q    Type
REMARK                         _______ _______ _______ _____ _____    ______ ____
ROOT
ATOM     10  C   UNL     1     -19.243  -1.721 -89.056  0.00  0.00    +0.038 A 
ATOM     11  C   UNL     1     -20.382  -0.989 -89.479  0.00  0.00    +0.047 A 
ATOM     12  C   UNL     1     -20.548  -0.592 -90.868  0.00  0.00    +0.035 A 
ATOM     32  C   UNL     1     -19.535  -0.960 -91.802  0.00  0.00    +0.024 A 
ATOM     33  C   UNL     1     -18.370  -1.702 -91.389  0.00  0.00    +0.007 A 
ATOM     34  C   UNL     1     -18.200  -2.095 -90.019  0.00  0.00    -0.029 A 
ATOM     35  C   UNL     1     -16.928  -2.885 -89.632  0.00  0.00    +0.045 C 
ENDROOT
BRANCH  10   9
ATOM      4  C   UNL     1     -17.994  -0.782 -84.518  0.00  0.00    +0.077 A 
ATOM      5  C   UNL     1     -17.489   0.516 -84.863  0.00  0.00    +0.048 A 
ATOM      6  C   UNL     1     -17.563   0.901 -86.221  0.00  0.00    +0.116 A 
ATOM      7  N   UNL     1     -18.104   0.044 -87.154  0.00  0.00    -0.223 NA
ATOM      8  C   UNL     1     -18.580  -1.201 -86.788  0.00  0.00    +0.220 A 
ATOM      9  N   UNL     1     -19.135  -2.076 -87.710  0.00  0.00    -0.283 N 
ATOM     36  H   UNL     1     -19.468  -2.989 -87.401  0.00  0.00    +0.155 HD
ATOM     37  N   UNL     1     -18.519  -1.593 -85.499  0.00  0.00    -0.214 NA
BRANCH   4   3
ATOM      1  C   UNL     1     -17.808  -1.075 -80.622  0.00  0.00    +0.020 A 
ATOM      2  C   UNL     1     -17.804  -0.495 -81.945  0.00  0.00    +0.013 A 
ATOM      3  C   UNL     1     -17.988  -1.331 -83.125  0.00  0.00    +0.019 A 
ATOM     38  C   UNL     1     -18.176  -2.760 -82.930  0.00  0.00    +0.120 A 
ATOM     39  N   UNL     1     -18.173  -3.291 -81.643  0.00  0.00    -0.263 NA
ATOM     40  C   UNL     1     -17.995  -2.497 -80.501  0.00  0.00    +0.111 A 
ENDBRANCH   4   3
ENDBRANCH  10   9
BRANCH  12  13
ATOM     13  N   UNL     1     -21.679   0.159 -91.355  0.00  0.00    -0.281 N 
ATOM     14  C   UNL     1     -21.775   1.528 -91.543  0.00  0.00    +0.248 C 
ATOM     30  O   UNL     1     -20.969   2.342 -91.117  0.00  0.00    -0.270 OA
ATOM     31  H   UNL     1     -22.510  -0.385 -91.589  0.00  0.00    +0.155 HD
BRANCH  14  15
ATOM     15  C   UNL     1     -22.942   2.072 -92.302  0.00  0.00    +0.037 A 
ATOM     16  C   UNL     1     -24.014   2.806 -91.624  0.00  0.00    +0.013 A 
ATOM     17  C   UNL     1     -25.137   3.306 -92.376  0.00  0.00    +0.005 A 
ATOM     18  C   UNL     1     -25.193   3.074 -93.818  0.00  0.00    -0.033 A 
ATOM     28  C   UNL     1     -24.114   2.347 -94.466  0.00  0.00    +0.005 A 
ATOM     29  C   UNL     1     -23.012   1.855 -93.731  0.00  0.00    +0.013 A 
BRANCH  18  19
ATOM     19  C   UNL     1     -26.363   3.553 -94.697  0.00  0.00    +0.119 C 
BRANCH  19  20
ATOM     20  N   UNL     1     -26.077   3.799 -96.142  0.00  0.00    -0.302 NA
ATOM     21  C   UNL     1     -26.362   5.249 -96.545  0.00  0.00    +0.066 C 
ATOM     22  C   UNL     1     -26.036   5.494 -98.054  0.00  0.00    -0.064 C 
ATOM     23  N   UNL     1     -26.848   4.523 -98.913  0.00  0.00    +0.379 N 
ATOM     24  C   UNL     1     -26.587   4.791-100.335  0.00  0.00    -0.096 C 
ATOM     25  H   UNL     1     -27.928   4.725 -98.723  0.00  0.00    -0.082 HD
ATOM     26  C   UNL     1     -26.572   3.080 -98.517  0.00  0.00    -0.064 C 
ATOM     27  C   UNL     1     -26.871   2.854 -97.009  0.00  0.00    +0.066 C 
ENDBRANCH  19  20
ENDBRANCH  18  19
ENDBRANCH  14  15
ENDBRANCH  12  13
TORSDOF 6
ENDMDL
MODEL 2
REMARK VINA RESULT:      -7.7      3.255      5.009
REMARK  Name = C:\Users\Docking\Desktop\test protocol\1iep_ligandH.pdb
REMARK  8 active torsions:
REMARK  status: ('A' for Active; 'I' for Inactive)
REMARK    1  A    between atoms: _5  and  _11
REMARK    2  A    between atoms: _19  and  _21
REMARK    3  A    between atoms: _22  and  _66
REMARK    4  A    between atoms: _27  and  _30
REMARK    5  A    between atoms: _32  and  _33
REMARK    6  A    between atoms: _38  and  _43
REMARK    7  A    between atoms: _43  and  _46
REMARK    8  A    between atoms: _53  and  _55
REMARK                            x       y       z     vdW  Elec       q    Type
REMARK                         _______ _______ _______ _____ _____    ______ ____
ROOT
ATOM     10  C   UNL     1     -15.322   0.725 -86.242  0.00  0.00    +0.038 A 
ATOM     11  C   UNL     1     -16.402   0.841 -87.154  0.00  0.00    +0.047 A 
ATOM     12  C   UNL     1     -16.468   1.938 -88.106  0.00  0.00    +0.035 A 
ATOM     32  C   UNL     1     -15.415   2.898 -88.105  0.00  0.00    +0.024 A 
ATOM     33  C   UNL     1     -14.309   2.796 -87.185  0.00  0.00    +0.007 A 
ATOM     34  C   UNL     1     -14.240   1.717 -86.241  0.00  0.00    -0.029 A 
ATOM     35  C   UNL     1     -13.035   1.661 -85.274  0.00  0.00    +0.045 C 
ENDROOT
BRANCH  10   9
ATOM      4  C   UNL     1     -17.140  -1.715 -82.531  0.00  0.00    +0.077 A 
ATOM      5  C   UNL     1     -18.189  -0.756 -82.337  0.00  0.00    +0.048 A 
ATOM      6  C   UNL     1     -18.221   0.355 -83.210  0.00  0.00    +0.116 A 
ATOM      7  N   UNL     1     -17.270   0.486 -84.199  0.00  0.00    -0.223 NA
ATOM      8  C   UNL     1     -16.271  -0.457 -84.357  0.00  0.00    +0.220 A 
ATOM      9  N   UNL     1     -15.309  -0.349 -85.349  0.00  0.00    -0.283 N 
ATOM     36  H   UNL     1     -14.584  -1.062 -85.428  0.00  0.00    +0.155 HD
ATOM     37  N   UNL     1     -16.218  -1.526 -83.535  0.00  0.00    -0.214 NA
BRANCH   4   3
ATOM      1  C   UNL     1     -17.714  -4.521 -79.866  0.00  0.00    +0.020 A 
ATOM      2  C   UNL     1     -17.919  -3.324 -80.648  0.00  0.00    +0.013 A 
ATOM      3  C   UNL     1     -16.975  -2.944 -81.691  0.00  0.00    +0.019 A 
ATOM     38  C   UNL     1     -15.825  -3.805 -81.921  0.00  0.00    +0.120 A 
ATOM     39  N   UNL     1     -15.652  -4.951 -81.151  0.00  0.00    -0.263 NA
ATOM     40  C   UNL     1     -16.553  -5.326 -80.143  0.00  0.00    +0.111 A 
ENDBRANCH   4   3
ENDBRANCH  10   9
BRANCH  12  13
ATOM     13  N   UNL     1     -17.544   2.113 -89.050  0.00  0.00    -0.281 N 
ATOM     14  C   UNL     1     -18.068   1.177 -89.927  0.00  0.00    +0.248 C 
ATOM     30  O   UNL     1     -17.546   0.102 -90.184  0.00  0.00    -0.270 OA
ATOM     31  H   UNL     1     -17.972   3.039 -89.075  0.00  0.00    +0.155 HD
BRANCH  14  15
ATOM     15  C   UNL     1     -19.351   1.485 -90.630  0.00  0.00    +0.037 A 
ATOM     16  C   UNL     1     -20.303   0.426 -90.973  0.00  0.00    +0.013 A 
ATOM     17  C   UNL     1     -21.524   0.748 -91.667  0.00  0.00    +0.005 A 
ATOM     18  C   UNL     1     -21.801   2.138 -92.022  0.00  0.00    -0.033 A 
ATOM     28  C   UNL     1     -20.841   3.170 -91.665  0.00  0.00    +0.005 A 
ATOM     29  C   UNL     1     -19.643   2.857 -90.985  0.00  0.00    +0.013 A 
BRANCH  18  19
ATOM     19  C   UNL     1     -23.069   2.571 -92.781  0.00  0.00    +0.119 C 
BRANCH  19  20
ATOM     20  N   UNL     1     -24.313   1.781 -92.541  0.00  0.00    -0.302 NA
ATOM     21  C   UNL     1     -25.305   1.904 -93.701  0.00  0.00    +0.066 C 
ATOM     22  C   UNL     1     -26.591   1.053 -93.443  0.00  0.00    -0.064 C 
ATOM     23  N   UNL     1     -27.237   1.495 -92.129  0.00  0.00    +0.379 N 
ATOM     24  C   UNL     1     -28.478   0.737 -91.913  0.00  0.00    -0.096 C 
ATOM     25  H   UNL     1     -27.511   2.571 -92.233  0.00  0.00    -0.082 HD
ATOM     26  C   UNL     1     -26.257   1.379 -90.971  0.00  0.00    -0.064 C 
ATOM     27  C   UNL     1     -24.970   2.204 -91.250  0.00  0.00    +0.066 C 
ENDBRANCH  19  20
ENDBRANCH  18  19
ENDBRANCH  14  15
ENDBRANCH  12  13
TORSDOF 6
ENDMDL
MODEL 3
REMARK VINA RESULT:      -7.6      8.759     15.180
REMARK  Name = C:\Users\Docking\Desktop\test protocol\1iep_ligandH.pdb
REMARK  8 active torsions:
REMARK  status: ('A' for Active; 'I' for Inactive)
REMARK    1  A    between atoms: _5  and  _11
REMARK    2  A    between atoms: _19  and  _21
REMARK    3  A    between atoms: _22  and  _66
REMARK    4  A    between atoms: _27  and  _30
REMARK    5  A    between atoms: _32  and  _33
REMARK    6  A    between atoms: _38  and  _43
REMARK    7  A    between atoms: _43  and  _46
REMARK    8  A    between atoms: _53  and  _55
REMARK                            x       y       z     vdW  Elec       q    Type
REMARK                         _______ _______ _______ _____ _____    ______ ____
ROOT
ATOM     10  C   UNL     1     -14.077   1.785 -87.420  0.00  0.00    +0.038 A 
ATOM     11  C   UNL     1     -14.309   1.261 -86.122  0.00  0.00    +0.047 A 
ATOM     12  C   UNL     1     -15.231   0.157 -85.911  0.00  0.00    +0.035 A 
ATOM     32  C   UNL     1     -15.898  -0.393 -87.045  0.00  0.00    +0.024 A 
ATOM     33  C   UNL     1     -15.675   0.128 -88.370  0.00  0.00    +0.007 A 
ATOM     34  C   UNL     1     -14.768   1.220 -88.584  0.00  0.00    -0.029 A 
ATOM     35  C   UNL     1     -14.572   1.742 -90.027  0.00  0.00    +0.045 C 
ENDROOT
BRANCH  10   9
ATOM      4  C   UNL     1      -9.674   3.532 -88.199  0.00  0.00    +0.077 A 
ATOM      5  C   UNL     1      -9.107   2.218 -88.299  0.00  0.00    +0.048 A 
ATOM      6  C   UNL     1      -9.980   1.120 -88.137  0.00  0.00    +0.116 A 
ATOM      7  N   UNL     1     -11.320   1.331 -87.893  0.00  0.00    -0.223 NA
ATOM      8  C   UNL     1     -11.835   2.611 -87.801  0.00  0.00    +0.220 A 
ATOM      9  N   UNL     1     -13.180   2.847 -87.565  0.00  0.00    -0.283 N 
ATOM     36  H   UNL     1     -13.520   3.806 -87.497  0.00  0.00    +0.155 HD
ATOM     37  N   UNL     1     -11.021   3.677 -87.951  0.00  0.00    -0.214 NA
BRANCH   4   3
ATOM      1  C   UNL     1      -7.612   6.762 -87.416  0.00  0.00    +0.020 A 
ATOM      2  C   UNL     1      -8.374   5.551 -87.214  0.00  0.00    +0.013 A 
ATOM      3  C   UNL     1      -8.881   4.792 -88.351  0.00  0.00    +0.019 A 
ATOM     38  C   UNL     1      -8.597   5.290 -89.689  0.00  0.00    +0.120 A 
ATOM     39  N   UNL     1      -7.862   6.460 -89.852  0.00  0.00    -0.263 NA
ATOM     40  C   UNL     1      -7.370   7.199 -88.765  0.00  0.00    +0.111 A 
ENDBRANCH   4   3
ENDBRANCH  10   9
BRANCH  12  13
ATOM     13  N   UNL     1     -15.513  -0.412 -84.616  0.00  0.00    -0.281 N 
ATOM     14  C   UNL     1     -16.694  -0.343 -83.895  0.00  0.00    +0.248 C 
ATOM     30  O   UNL     1     -17.624   0.403 -84.161  0.00  0.00    -0.270 OA
ATOM     31  H   UNL     1     -14.749  -0.927 -84.178  0.00  0.00    +0.155 HD
BRANCH  14  15
ATOM     15  C   UNL     1     -16.859  -1.220 -82.696  0.00  0.00    +0.037 A 
ATOM     16  C   UNL     1     -17.582  -0.756 -81.509  0.00  0.00    +0.013 A 
ATOM     17  C   UNL     1     -17.712  -1.615 -80.359  0.00  0.00    +0.005 A 
ATOM     18  C   UNL     1     -17.119  -2.950 -80.392  0.00  0.00    -0.033 A 
ATOM     28  C   UNL     1     -16.412  -3.387 -81.585  0.00  0.00    +0.005 A 
ATOM     29  C   UNL     1     -16.282  -2.547 -82.713  0.00  0.00    +0.013 A 
BRANCH  18  19
ATOM     19  C   UNL     1     -17.191  -3.927 -79.204  0.00  0.00    +0.119 C 
BRANCH  19  20
ATOM     20  N   UNL     1     -16.082  -3.872 -78.205  0.00  0.00    -0.302 NA
ATOM     21  C   UNL     1     -15.845  -5.228 -77.534  0.00  0.00    +0.066 C 
ATOM     22  C   UNL     1     -14.666  -5.157 -76.509  0.00  0.00    -0.064 C 
ATOM     23  N   UNL     1     -14.967  -4.081 -75.464  0.00  0.00    +0.379 N 
ATOM     24  C   UNL     1     -13.888  -4.052 -74.466  0.00  0.00    -0.096 C 
ATOM     25  H   UNL     1     -15.906  -4.373 -74.939  0.00  0.00    -0.082 HD
ATOM     26  C   UNL     1     -15.207  -2.730 -76.123  0.00  0.00    -0.064 C 
ATOM     27  C   UNL     1     -16.360  -2.818 -77.161  0.00  0.00    +0.066 C 
ENDBRANCH  19  20
ENDBRANCH  18  19
ENDBRANCH  14  15
ENDBRANCH  12  13
TORSDOF 6
ENDMDL
MODEL 4
REMARK VINA RESULT:      -7.6      9.967     14.627
REMARK  Name = C:\Users\Docking\Desktop\test protocol\1iep_ligandH.pdb
REMARK  8 active torsions:
REMARK  status: ('A' for Active; 'I' for Inactive)
REMARK    1  A    between atoms: _5  and  _11
REMARK    2  A    between atoms: _19  and  _21
REMARK    3  A    between atoms: _22  and  _66
REMARK    4  A    between atoms: _27  and  _30
REMARK    5  A    between atoms: _32  and  _33
REMARK    6  A    between atoms: _38  and  _43
REMARK    7  A    between atoms: _43  and  _46
REMARK    8  A    between atoms: _53  and  _55
REMARK                            x       y       z     vdW  Elec       q    Type
REMARK                         _______ _______ _______ _____ _____    ______ ____
ROOT
ATOM     10  C   UNL     1     -10.089   3.229 -89.415  0.00  0.00    +0.038 A 
ATOM     11  C   UNL     1     -11.204   2.922 -88.594  0.00  0.00    +0.047 A 
ATOM     12  C   UNL     1     -11.112   1.918 -87.546  0.00  0.00    +0.035 A 
ATOM     32  C   UNL     1      -9.868   1.247 -87.360  0.00  0.00    +0.024 A 
ATOM     33  C   UNL     1      -8.726   1.546 -88.186  0.00  0.00    +0.007 A 
ATOM     34  C   UNL     1      -8.811   2.534 -89.223  0.00  0.00    -0.029 A 
ATOM     35  C   UNL     1      -7.555   2.810 -90.083  0.00  0.00    +0.045 C 
ENDROOT
BRANCH  10   9
ATOM      4  C   UNL     1     -10.084   7.794 -90.898  0.00  0.00    +0.077 A 
ATOM      5  C   UNL     1      -9.796   8.284 -89.581  0.00  0.00    +0.048 A 
ATOM      6  C   UNL     1      -9.664   7.329 -88.548  0.00  0.00    +0.116 A 
ATOM      7  N   UNL     1      -9.811   5.986 -88.824  0.00  0.00    -0.223 NA
ATOM      8  C   UNL     1     -10.090   5.548 -90.105  0.00  0.00    +0.220 A 
ATOM      9  N   UNL     1     -10.233   4.203 -90.407  0.00  0.00    -0.283 N 
ATOM     36  H   UNL     1     -10.447   3.920 -91.363  0.00  0.00    +0.155 HD
ATOM     37  N   UNL     1     -10.222   6.441 -91.108  0.00  0.00    -0.214 NA
BRANCH   4   3
ATOM      1  C   UNL     1     -10.672  10.918 -93.178  0.00  0.00    +0.020 A 
ATOM      2  C   UNL     1     -10.521  10.107 -91.992  0.00  0.00    +0.013 A 
ATOM      3  C   UNL     1     -10.249   8.679 -92.094  0.00  0.00    +0.019 A 
ATOM     38  C   UNL     1     -10.132   8.098 -93.423  0.00  0.00    +0.120 A 
ATOM     39  N   UNL     1     -10.283   8.902 -94.548  0.00  0.00    -0.263 NA
ATOM     40  C   UNL     1     -10.547  10.278 -94.461  0.00  0.00    +0.111 A 
ENDBRANCH   4   3
ENDBRANCH  10   9
BRANCH  12  13
ATOM     13  N   UNL     1     -12.213   1.558 -86.686  0.00  0.00    -0.281 N 
ATOM     14  C   UNL     1     -13.108   2.402 -86.050  0.00  0.00    +0.248 C 
ATOM     30  O   UNL     1     -12.967   3.612 -85.952  0.00  0.00    -0.270 OA
ATOM     31  H   UNL     1     -12.348   0.559 -86.528  0.00  0.00    +0.155 HD
BRANCH  14  15
ATOM     15  C   UNL     1     -14.329   1.816 -85.419  0.00  0.00    +0.037 A 
ATOM     16  C   UNL     1     -15.502   2.642 -85.122  0.00  0.00    +0.013 A 
ATOM     17  C   UNL     1     -16.661   2.056 -84.498  0.00  0.00    +0.005 A 
ATOM     18  C   UNL     1     -16.653   0.633 -84.166  0.00  0.00    -0.033 A 
ATOM     28  C   UNL     1     -15.478  -0.165 -84.476  0.00  0.00    +0.005 A 
ATOM     29  C   UNL     1     -14.340   0.407 -85.087  0.00  0.00    +0.013 A 
BRANCH  18  19
ATOM     19  C   UNL     1     -17.837  -0.073 -83.479  0.00  0.00    +0.119 C 
BRANCH  19  20
ATOM     20  N   UNL     1     -17.520  -1.223 -82.581  0.00  0.00    -0.302 NA
ATOM     21  C   UNL     1     -18.225  -2.509 -83.023  0.00  0.00    +0.066 C 
ATOM     22  C   UNL     1     -17.865  -3.707 -82.085  0.00  0.00    -0.064 C 
ATOM     23  N   UNL     1     -18.236  -3.353 -80.644  0.00  0.00    +0.379 N 
ATOM     24  C   UNL     1     -17.951  -4.499 -79.769  0.00  0.00    -0.096 C 
ATOM     25  H   UNL     1     -19.335  -3.168 -80.614  0.00  0.00    -0.082 HD
ATOM     26  C   UNL     1     -17.541  -2.074 -80.198  0.00  0.00    -0.064 C 
ATOM     27  C   UNL     1     -17.882  -0.897 -81.153  0.00  0.00    +0.066 C 
ENDBRANCH  19  20
ENDBRANCH  18  19
ENDBRANCH  14  15
ENDBRANCH  12  13
TORSDOF 6
ENDMDL
MODEL 5
REMARK VINA RESULT:      -7.6      3.848     12.599
REMARK  Name = C:\Users\Docking\Desktop\test protocol\1iep_ligandH.pdb
REMARK  8 active torsions:
REMARK  status: ('A' for Active; 'I' for Inactive)
REMARK    1  A    between atoms: _5  and  _11
REMARK    2  A    between atoms: _19  and  _21
REMARK    3  A    between atoms: _22  and  _66
REMARK    4  A    between atoms: _27  and  _30
REMARK    5  A    between atoms: _32  and  _33
REMARK    6  A    between atoms: _38  and  _43
REMARK    7  A    between atoms: _43  and  _46
REMARK    8  A    between atoms: _53  and  _55
REMARK                            x       y       z     vdW  Elec       q    Type
REMARK                         _______ _______ _______ _____ _____    ______ ____
ROOT
ATOM     10  C   UNL     1     -24.845   2.600 -92.234  0.00  0.00    +0.038 A 
ATOM     11  C   UNL     1     -23.865   1.961 -91.432  0.00  0.00    +0.047 A 
ATOM     12  C   UNL     1     -22.560   1.615 -91.972  0.00  0.00    +0.035 A 
ATOM     32  C   UNL     1     -22.284   1.938 -93.333  0.00  0.00    +0.024 A 
ATOM     33  C   UNL     1     -23.268   2.587 -94.163  0.00  0.00    +0.007 A 
ATOM     34  C   UNL     1     -24.559   2.928 -93.636  0.00  0.00    -0.029 A 
ATOM     35  C   UNL     1     -25.578   3.617 -94.574  0.00  0.00    +0.045 C 
ENDROOT
BRANCH  10   9
ATOM      4  C   UNL     1     -29.405   1.534 -91.181  0.00  0.00    +0.077 A 
ATOM      5  C   UNL     1     -29.324   0.265 -91.846  0.00  0.00    +0.048 A 
ATOM      6  C   UNL     1     -28.093  -0.072 -92.452  0.00  0.00    +0.116 A 
ATOM      7  N   UNL     1     -27.029   0.802 -92.391  0.00  0.00    -0.223 NA
ATOM      8  C   UNL     1     -27.141   2.018 -91.744  0.00  0.00    +0.220 A 
ATOM      9  N   UNL     1     -26.082   2.909 -91.665  0.00  0.00    -0.283 N 
ATOM     36  H   UNL     1     -26.208   3.800 -91.184  0.00  0.00    +0.155 HD
ATOM     37  N   UNL     1     -28.307   2.365 -91.159  0.00  0.00    -0.214 NA
BRANCH   4   3
ATOM      1  C   UNL     1     -33.131   2.374 -90.340  0.00  0.00    +0.020 A 
ATOM      2  C   UNL     1     -31.974   1.876 -91.047  0.00  0.00    +0.013 A 
ATOM      3  C   UNL     1     -30.637   2.032 -90.491  0.00  0.00    +0.019 A 
ATOM     38  C   UNL     1     -30.503   2.701 -89.205  0.00  0.00    +0.120 A 
ATOM     39  N   UNL     1     -31.635   3.171 -88.547  0.00  0.00    -0.263 NA
ATOM     40  C   UNL     1     -32.927   3.029 -89.074  0.00  0.00    +0.111 A 
ENDBRANCH   4   3
ENDBRANCH  10   9
BRANCH  12  13
ATOM     13  N   UNL     1     -21.528   0.958 -91.208  0.00  0.00    -0.281 N 
ATOM     14  C   UNL     1     -20.253   1.419 -90.927  0.00  0.00    +0.248 C 
ATOM     30  O   UNL     1     -19.728   2.379 -91.472  0.00  0.00    -0.270 OA
ATOM     31  H   UNL     1     -21.768   0.042 -90.829  0.00  0.00    +0.155 HD
BRANCH  14  15
ATOM     15  C   UNL     1     -19.436   0.701 -89.901  0.00  0.00    +0.037 A 
ATOM     16  C   UNL     1     -19.755  -0.671 -89.499  0.00  0.00    +0.013 A 
ATOM     17  C   UNL     1     -18.961  -1.334 -88.495  0.00  0.00    +0.005 A 
ATOM     18  C   UNL     1     -17.838  -0.625 -87.887  0.00  0.00    -0.033 A 
ATOM     28  C   UNL     1     -17.540   0.734 -88.308  0.00  0.00    +0.005 A 
ATOM     29  C   UNL     1     -18.317   1.388 -89.291  0.00  0.00    +0.013 A 
BRANCH  18  19
ATOM     19  C   UNL     1     -16.949  -1.247 -86.793  0.00  0.00    +0.119 C 
BRANCH  19  20
ATOM     20  N   UNL     1     -17.473  -1.229 -85.395  0.00  0.00    -0.302 NA
ATOM     21  C   UNL     1     -16.462  -0.633 -84.411  0.00  0.00    +0.066 C 
ATOM     22  C   UNL     1     -17.035  -0.601 -82.956  0.00  0.00    -0.064 C 
ATOM     23  N   UNL     1     -17.431  -2.018 -82.536  0.00  0.00    +0.379 N 
ATOM     24  C   UNL     1     -17.916  -2.000 -81.148  0.00  0.00    -0.096 C 
ATOM     25  H   UNL     1     -16.512  -2.648 -82.565  0.00  0.00    -0.082 HD
ATOM     26  C   UNL     1     -18.434  -2.618 -83.511  0.00  0.00    -0.064 C 
ATOM     27  C   UNL     1     -17.866  -2.618 -84.958  0.00  0.00    +0.066 C 
ENDBRANCH  19  20
ENDBRANCH  18  19
ENDBRANCH  14  15
ENDBRANCH  12  13
TORSDOF 6
ENDMDL
