MODEL 1
REMARK VINA RESULT:      -8.3      0.000      0.000
REMARK  Name = C:\Users\Docking\Desktop\test protocol\1iep_ligandH.pdb
REMARK  8 active torsions:
REMARK  status: ('A' for Active; 'I' for Inactive)
REMARK    1  A    between atoms: _5  and  _11
REMARK    2  A    between atoms: _19  and  _21
REMARK    3  A    between atoms: _22  and  _66
REMARK    4  A    between atoms: _27  and  _30
REMARK    5  A    between atoms: _32  and  _33
REMARK    6  A    between atoms: _38  and  _43
REMARK    7  A    between atoms: _43  and  _46
REMARK    8  A    between atoms: _53  and  _55
REMARK                            x       y       z     vdW  Elec       q    Type
REMARK                         _______ _______ _______ _____ _____    ______ ____
ROOT
ATOM     10  C   UNL     1     -12.089 -14.055  -6.487  0.00  0.00    +0.038 A 
ATOM     11  C   UNL     1     -11.337 -14.357  -5.323  0.00  0.00    +0.047 A 
ATOM     12  C   UNL     1     -10.549 -13.335  -4.650  0.00  0.00    +0.035 A 
ATOM     32  C   UNL     1     -10.553 -12.015  -5.189  0.00  0.00    +0.024 A 
ATOM     33  C   UNL     1     -11.311 -11.692  -6.372  0.00  0.00    +0.007 A 
ATOM     34  C   UNL     1     -12.088 -12.696  -7.041  0.00  0.00    -0.029 A 
ATOM     35  C   UNL     1     -12.876 -12.293  -8.309  0.00  0.00    +0.045 C 
ENDROOT
BRANCH  10   9
ATOM      4  C   UNL     1     -12.522 -17.712  -9.565  0.00  0.00    +0.077 A 
ATOM      5  C   UNL     1     -11.171 -17.562 -10.025  0.00  0.00    +0.048 A 
ATOM      6  C   UNL     1     -10.401 -16.527  -9.449  0.00  0.00    +0.116 A 
ATOM      7  N   UNL     1     -10.950 -15.710  -8.486  0.00  0.00    -0.223 NA
ATOM      8  C   UNL     1     -12.257 -15.880  -8.066  0.00  0.00    +0.220 A 
ATOM      9  N   UNL     1     -12.827 -15.074  -7.093  0.00  0.00    -0.283 N 
ATOM     36  H   UNL     1     -13.796 -15.228  -6.816  0.00  0.00    +0.155 HD
ATOM     37  N   UNL     1     -13.013 -16.860  -8.602  0.00  0.00    -0.214 NA
BRANCH   4   3
ATOM      1  C   UNL     1     -15.354 -20.401  -9.780  0.00  0.00    +0.020 A 
ATOM      2  C   UNL     1     -14.472 -19.393  -9.238  0.00  0.00    +0.013 A 
ATOM      3  C   UNL     1     -13.460 -18.761 -10.075  0.00  0.00    +0.019 A 
ATOM     38  C   UNL     1     -13.366 -19.175 -11.467  0.00  0.00    +0.120 A 
ATOM     39  N   UNL     1     -14.228 -20.149 -11.961  0.00  0.00    -0.263 NA
ATOM     40  C   UNL     1     -15.205 -20.765 -11.165  0.00  0.00    +0.111 A 
ENDBRANCH   4   3
ENDBRANCH  10   9
BRANCH  12  13
ATOM     13  N   UNL     1      -9.760 -13.584  -3.470  0.00  0.00    -0.281 N 
ATOM     14  C   UNL     1     -10.070 -14.399  -2.394  0.00  0.00    +0.248 C 
ATOM     30  O   UNL     1     -11.176 -14.874  -2.183  0.00  0.00    -0.270 OA
ATOM     31  H   UNL     1      -8.862 -13.101  -3.422  0.00  0.00    +0.155 HD
BRANCH  14  15
ATOM     15  C   UNL     1      -9.002 -14.721  -1.400  0.00  0.00    +0.037 A 
ATOM     16  C   UNL     1      -9.239 -15.672  -0.311  0.00  0.00    +0.013 A 
ATOM     17  C   UNL     1      -8.196 -15.952   0.645  0.00  0.00    +0.005 A 
ATOM     18  C   UNL     1      -6.905 -15.281   0.513  0.00  0.00    -0.033 A 
ATOM     28  C   UNL     1      -6.695 -14.346  -0.580  0.00  0.00    +0.005 A 
ATOM     29  C   UNL     1      -7.715 -14.069  -1.518  0.00  0.00    +0.013 A 
BRANCH  18  19
ATOM     19  C   UNL     1      -5.742 -15.503   1.498  0.00  0.00    +0.119 C 
BRANCH  19  20
ATOM     20  N   UNL     1      -4.392 -15.017   1.084  0.00  0.00    -0.302 NA
ATOM     21  C   UNL     1      -3.631 -16.064   0.266  0.00  0.00    +0.066 C 
ATOM     22  C   UNL     1      -2.230 -15.531  -0.178  0.00  0.00    -0.064 C 
ATOM     23  N   UNL     1      -1.428 -15.122   1.058  0.00  0.00    +0.379 N 
ATOM     24  C   UNL     1      -0.089 -14.674   0.648  0.00  0.00    -0.096 C 
ATOM     25  H   UNL     1      -1.302 -16.028   1.695  0.00  0.00    -0.082 HD
ATOM     26  C   UNL     1      -2.179 -14.083   1.879  0.00  0.00    -0.064 C 
ATOM     27  C   UNL     1      -3.581 -14.612   2.290  0.00  0.00    +0.066 C 
ENDBRANCH  19  20
ENDBRANCH  18  19
ENDBRANCH  14  15
ENDBRANCH  12  13
TORSDOF 6
ENDMDL
MODEL 2
REMARK VINA RESULT:      -8.1      7.033     14.763
REMARK  Name = C:\Users\Docking\Desktop\test protocol\1iep_ligandH.pdb
REMARK  8 active torsions:
REMARK  status: ('A' for Active; 'I' for Inactive)
REMARK    1  A    between atoms: _5  and  _11
REMARK    2  A    between atoms: _19  and  _21
REMARK    3  A    between atoms: _22  and  _66
REMARK    4  A    between atoms: _27  and  _30
REMARK    5  A    between atoms: _32  and  _33
REMARK    6  A    between atoms: _38  and  _43
REMARK    7  A    between atoms: _43  and  _46
REMARK    8  A    between atoms: _53  and  _55
REMARK                            x       y       z     vdW  Elec       q    Type
REMARK                         _______ _______ _______ _____ _____    ______ ____
ROOT
ATOM     10  C   UNL     1     -13.149 -20.490  -9.532  0.00  0.00    +0.038 A 
ATOM     11  C   UNL     1     -14.221 -21.295  -9.068  0.00  0.00    +0.047 A 
ATOM     12  C   UNL     1     -14.576 -22.535  -9.740  0.00  0.00    +0.035 A 
ATOM     32  C   UNL     1     -13.816 -22.927 -10.880  0.00  0.00    +0.024 A 
ATOM     33  C   UNL     1     -12.724 -22.121 -11.366  0.00  0.00    +0.007 A 
ATOM     34  C   UNL     1     -12.371 -20.895 -10.708  0.00  0.00    -0.029 A 
ATOM     35  C   UNL     1     -11.195 -20.067 -11.276  0.00  0.00    +0.045 C 
ENDROOT
BRANCH  10   9
ATOM      4  C   UNL     1     -13.294 -15.715  -9.073  0.00  0.00    +0.077 A 
ATOM      5  C   UNL     1     -13.998 -15.557 -10.313  0.00  0.00    +0.048 A 
ATOM      6  C   UNL     1     -14.297 -16.730 -11.042  0.00  0.00    +0.116 A 
ATOM      7  N   UNL     1     -13.917 -17.963 -10.557  0.00  0.00    -0.223 NA
ATOM      8  C   UNL     1     -13.237 -18.079  -9.358  0.00  0.00    +0.220 A 
ATOM      9  N   UNL     1     -12.852 -19.309  -8.848  0.00  0.00    -0.283 N 
ATOM     36  H   UNL     1     -12.346 -19.352  -7.964  0.00  0.00    +0.155 HD
ATOM     37  N   UNL     1     -12.938 -16.974  -8.644  0.00  0.00    -0.214 NA
BRANCH   4   3
ATOM      1  C   UNL     1     -13.433 -12.472  -6.889  0.00  0.00    +0.020 A 
ATOM      2  C   UNL     1     -13.857 -13.556  -7.745  0.00  0.00    +0.013 A 
ATOM      3  C   UNL     1     -12.908 -14.571  -8.187  0.00  0.00    +0.019 A 
ATOM     38  C   UNL     1     -11.527 -14.459  -7.741  0.00  0.00    +0.120 A 
ATOM     39  N   UNL     1     -11.148 -13.403  -6.918  0.00  0.00    -0.263 NA
ATOM     40  C   UNL     1     -12.052 -12.420  -6.488  0.00  0.00    +0.111 A 
ENDBRANCH   4   3
ENDBRANCH  10   9
BRANCH  12  13
ATOM     13  N   UNL     1     -15.659 -23.389  -9.320  0.00  0.00    -0.281 N 
ATOM     14  C   UNL     1     -15.578 -24.641  -8.733  0.00  0.00    +0.248 C 
ATOM     30  O   UNL     1     -14.558 -25.312  -8.674  0.00  0.00    -0.270 OA
ATOM     31  H   UNL     1     -16.600 -23.027  -9.475  0.00  0.00    +0.155 HD
BRANCH  14  15
ATOM     15  C   UNL     1     -16.811 -25.241  -8.137  0.00  0.00    +0.037 A 
ATOM     16  C   UNL     1     -17.355 -26.508  -8.632  0.00  0.00    +0.013 A 
ATOM     17  C   UNL     1     -18.555 -27.056  -8.052  0.00  0.00    +0.005 A 
ATOM     18  C   UNL     1     -19.219 -26.336  -6.967  0.00  0.00    -0.033 A 
ATOM     28  C   UNL     1     -18.655 -25.084  -6.492  0.00  0.00    +0.005 A 
ATOM     29  C   UNL     1     -17.479 -24.543  -7.059  0.00  0.00    +0.013 A 
BRANCH  18  19
ATOM     19  C   UNL     1     -20.516 -26.835  -6.302  0.00  0.00    +0.119 C 
BRANCH  19  20
ATOM     20  N   UNL     1     -20.558 -28.266  -5.874  0.00  0.00    -0.302 NA
ATOM     21  C   UNL     1     -21.036 -29.188  -6.999  0.00  0.00    +0.066 C 
ATOM     22  C   UNL     1     -21.052 -30.683  -6.541  0.00  0.00    -0.064 C 
ATOM     23  N   UNL     1     -21.945 -30.826  -5.307  0.00  0.00    +0.379 N 
ATOM     24  C   UNL     1     -22.009 -32.239  -4.909  0.00  0.00    -0.096 C 
ATOM     25  H   UNL     1     -22.974 -30.509  -5.597  0.00  0.00    -0.082 HD
ATOM     26  C   UNL     1     -21.478 -29.910  -4.185  0.00  0.00    -0.064 C 
ATOM     27  C   UNL     1     -21.437 -28.430  -4.660  0.00  0.00    +0.066 C 
ENDBRANCH  19  20
ENDBRANCH  18  19
ENDBRANCH  14  15
ENDBRANCH  12  13
TORSDOF 6
ENDMDL
MODEL 3
REMARK VINA RESULT:      -8.1      3.738      7.534
REMARK  Name = C:\Users\Docking\Desktop\test protocol\1iep_ligandH.pdb
REMARK  8 active torsions:
REMARK  status: ('A' for Active; 'I' for Inactive)
REMARK    1  A    between atoms: _5  and  _11
REMARK    2  A    between atoms: _19  and  _21
REMARK    3  A    between atoms: _22  and  _66
REMARK    4  A    between atoms: _27  and  _30
REMARK    5  A    between atoms: _32  and  _33
REMARK    6  A    between atoms: _38  and  _43
REMARK    7  A    between atoms: _43  and  _46
REMARK    8  A    between atoms: _53  and  _55
REMARK                            x       y       z     vdW  Elec       q    Type
REMARK                         _______ _______ _______ _____ _____    ______ ____
ROOT
ATOM     10  C   UNL     1     -14.835 -19.967  -9.737  0.00  0.00    +0.038 A 
ATOM     11  C   UNL     1     -14.062 -19.138  -8.886  0.00  0.00    +0.047 A 
ATOM     12  C   UNL     1     -13.178 -18.118  -9.429  0.00  0.00    +0.035 A 
ATOM     32  C   UNL     1     -13.109 -17.968 -10.845  0.00  0.00    +0.024 A 
ATOM     33  C   UNL     1     -13.888 -18.803 -11.725  0.00  0.00    +0.007 A 
ATOM     34  C   UNL     1     -14.759 -19.813 -11.195  0.00  0.00    -0.029 A 
ATOM     35  C   UNL     1     -15.566 -20.684 -12.186  0.00  0.00    +0.045 C 
ENDROOT
BRANCH  10   9
ATOM      4  C   UNL     1     -15.930 -24.514  -8.656  0.00  0.00    +0.077 A 
ATOM      5  C   UNL     1     -14.760 -25.015  -9.317  0.00  0.00    +0.048 A 
ATOM      6  C   UNL     1     -13.905 -24.070  -9.929  0.00  0.00    +0.116 A 
ATOM      7  N   UNL     1     -14.209 -22.727  -9.877  0.00  0.00    -0.223 NA
ATOM      8  C   UNL     1     -15.347 -22.277  -9.233  0.00  0.00    +0.220 A 
ATOM      9  N   UNL     1     -15.667 -20.930  -9.162  0.00  0.00    -0.283 N 
ATOM     36  H   UNL     1     -16.520 -20.639  -8.684  0.00  0.00    +0.155 HD
ATOM     37  N   UNL     1     -16.179 -23.159  -8.642  0.00  0.00    -0.214 NA
BRANCH   4   3
ATOM      1  C   UNL     1     -18.401 -27.430  -7.825  0.00  0.00    +0.020 A 
ATOM      2  C   UNL     1     -17.438 -26.623  -8.539  0.00  0.00    +0.013 A 
ATOM      3  C   UNL     1     -16.928 -25.386  -7.961  0.00  0.00    +0.019 A 
ATOM     38  C   UNL     1     -17.416 -24.992  -6.648  0.00  0.00    +0.120 A 
ATOM     39  N   UNL     1     -18.344 -25.788  -5.985  0.00  0.00    -0.263 NA
ATOM     40  C   UNL     1     -18.843 -26.980  -6.532  0.00  0.00    +0.111 A 
ENDBRANCH   4   3
ENDBRANCH  10   9
BRANCH  12  13
ATOM     13  N   UNL     1     -12.362 -17.252  -8.614  0.00  0.00    -0.281 N 
ATOM     14  C   UNL     1     -12.481 -15.882  -8.444  0.00  0.00    +0.248 C 
ATOM     30  O   UNL     1     -13.180 -15.158  -9.137  0.00  0.00    -0.270 OA
ATOM     31  H   UNL     1     -11.605 -17.703  -8.101  0.00  0.00    +0.155 HD
BRANCH  14  15
ATOM     15  C   UNL     1     -11.701 -15.220  -7.355  0.00  0.00    +0.037 A 
ATOM     16  C   UNL     1     -12.300 -14.180  -6.514  0.00  0.00    +0.013 A 
ATOM     17  C   UNL     1     -11.520 -13.545  -5.482  0.00  0.00    +0.005 A 
ATOM     18  C   UNL     1     -10.131 -13.950  -5.283  0.00  0.00    -0.033 A 
ATOM     28  C   UNL     1      -9.562 -14.988  -6.128  0.00  0.00    +0.005 A 
ATOM     29  C   UNL     1     -10.324 -15.612  -7.141  0.00  0.00    +0.013 A 
BRANCH  18  19
ATOM     19  C   UNL     1      -9.217 -13.312  -4.220  0.00  0.00    +0.119 C 
BRANCH  19  20
ATOM     20  N   UNL     1      -8.834 -14.159  -3.051  0.00  0.00    -0.302 NA
ATOM     21  C   UNL     1     -10.036 -14.488  -2.161  0.00  0.00    +0.066 C 
ATOM     22  C   UNL     1      -9.621 -15.393  -0.956  0.00  0.00    -0.064 C 
ATOM     23  N   UNL     1      -8.525 -14.693  -0.149  0.00  0.00    +0.379 N 
ATOM     24  C   UNL     1      -8.174 -15.515   1.018  0.00  0.00    -0.096 C 
ATOM     25  H   UNL     1      -8.945 -13.732   0.228  0.00  0.00    -0.082 HD
ATOM     26  C   UNL     1      -7.327 -14.360  -1.027  0.00  0.00    -0.064 C 
ATOM     27  C   UNL     1      -7.756 -13.485  -2.238  0.00  0.00    +0.066 C 
ENDBRANCH  19  20
ENDBRANCH  18  19
ENDBRANCH  14  15
ENDBRANCH  12  13
TORSDOF 6
ENDMDL
MODEL 4
REMARK VINA RESULT:      -7.9      5.446      8.332
REMARK  Name = C:\Users\Docking\Desktop\test protocol\1iep_ligandH.pdb
REMARK  8 active torsions:
REMARK  status: ('A' for Active; 'I' for Inactive)
REMARK    1  A    between atoms: _5  and  _11
REMARK    2  A    between atoms: _19  and  _21
REMARK    3  A    between atoms: _22  and  _66
REMARK    4  A    between atoms: _27  and  _30
REMARK    5  A    between atoms: _32  and  _33
REMARK    6  A    between atoms: _38  and  _43
REMARK    7  A    between atoms: _43  and  _46
REMARK    8  A    between atoms: _53  and  _55
REMARK                            x       y       z     vdW  Elec       q    Type
REMARK                         _______ _______ _______ _____ _____    ______ ____
ROOT
ATOM     10  C   UNL     1      -8.544 -14.052  -2.255  0.00  0.00    +0.038 A 
ATOM     11  C   UNL     1      -7.497 -14.063  -1.298  0.00  0.00    +0.047 A 
ATOM     12  C   UNL     1      -7.593 -14.862  -0.087  0.00  0.00    +0.035 A 
ATOM     32  C   UNL     1      -8.770 -15.640   0.117  0.00  0.00    +0.024 A 
ATOM     33  C   UNL     1      -9.844 -15.640  -0.844  0.00  0.00    +0.007 A 
ATOM     34  C   UNL     1      -9.756 -14.851  -2.040  0.00  0.00    -0.029 A 
ATOM     35  C   UNL     1     -10.941 -14.884  -3.033  0.00  0.00    +0.045 C 
ENDROOT
BRANCH  10   9
ATOM      4  C   UNL     1      -9.312 -10.025  -4.752  0.00  0.00    +0.077 A 
ATOM      5  C   UNL     1     -10.092  -9.448  -3.696  0.00  0.00    +0.048 A 
ATOM      6  C   UNL     1     -10.278 -10.223  -2.529  0.00  0.00    +0.116 A 
ATOM      7  N   UNL     1      -9.720 -11.480  -2.437  0.00  0.00    -0.223 NA
ATOM      8  C   UNL     1      -8.975 -12.008  -3.475  0.00  0.00    +0.220 A 
ATOM      9  N   UNL     1      -8.398 -13.266  -3.401  0.00  0.00    -0.283 N 
ATOM     36  H   UNL     1      -7.861 -13.623  -4.191  0.00  0.00    +0.155 HD
ATOM     37  N   UNL     1      -8.784 -11.288  -4.600  0.00  0.00    -0.214 NA
BRANCH   4   3
ATOM      1  C   UNL     1      -9.338  -9.002  -8.528  0.00  0.00    +0.020 A 
ATOM      2  C   UNL     1      -9.651  -9.707  -7.306  0.00  0.00    +0.013 A 
ATOM      3  C   UNL     1      -9.024  -9.329  -6.046  0.00  0.00    +0.019 A 
ATOM     38  C   UNL     1      -8.077  -8.224  -6.056  0.00  0.00    +0.120 A 
ATOM     39  N   UNL     1      -7.795  -7.564  -7.248  0.00  0.00    -0.263 NA
ATOM     40  C   UNL     1      -8.391  -7.920  -8.467  0.00  0.00    +0.111 A 
ENDBRANCH   4   3
ENDBRANCH  10   9
BRANCH  12  13
ATOM     13  N   UNL     1      -6.566 -14.907   0.924  0.00  0.00    -0.281 N 
ATOM     14  C   UNL     1      -5.249 -15.311   0.782  0.00  0.00    +0.248 C 
ATOM     30  O   UNL     1      -4.808 -15.901  -0.193  0.00  0.00    -0.270 OA
ATOM     31  H   UNL     1      -6.844 -14.604   1.858  0.00  0.00    +0.155 HD
BRANCH  14  15
ATOM     15  C   UNL     1      -4.285 -15.033   1.890  0.00  0.00    +0.037 A 
ATOM     16  C   UNL     1      -2.926 -14.559   1.614  0.00  0.00    +0.013 A 
ATOM     17  C   UNL     1      -2.011 -14.315   2.700  0.00  0.00    +0.005 A 
ATOM     18  C   UNL     1      -2.452 -14.542   4.074  0.00  0.00    -0.033 A 
ATOM     28  C   UNL     1      -3.808 -15.007   4.320  0.00  0.00    +0.005 A 
ATOM     29  C   UNL     1      -4.707 -15.249   3.257  0.00  0.00    +0.013 A 
BRANCH  18  19
ATOM     19  C   UNL     1      -1.537 -14.328   5.294  0.00  0.00    +0.119 C 
BRANCH  19  20
ATOM     20  N   UNL     1      -1.889 -13.216   6.226  0.00  0.00    -0.302 NA
ATOM     21  C   UNL     1      -0.848 -12.093   6.201  0.00  0.00    +0.066 C 
ATOM     22  C   UNL     1      -1.244 -10.928   7.166  0.00  0.00    -0.064 C 
ATOM     23  N   UNL     1      -1.413 -11.479   8.583  0.00  0.00    +0.379 N 
ATOM     24  C   UNL     1      -1.729 -10.376   9.503  0.00  0.00    -0.096 C 
ATOM     25  H   UNL     1      -0.435 -11.912   8.897  0.00  0.00    -0.082 HD
ATOM     26  C   UNL     1      -2.445 -12.597   8.617  0.00  0.00    -0.064 C 
ATOM     27  C   UNL     1      -2.057 -13.736   7.633  0.00  0.00    +0.066 C 
ENDBRANCH  19  20
ENDBRANCH  18  19
ENDBRANCH  14  15
ENDBRANCH  12  13
TORSDOF 6
ENDMDL
MODEL 5
REMARK VINA RESULT:      -7.9      2.535     13.044
REMARK  Name = C:\Users\Docking\Desktop\test protocol\1iep_ligandH.pdb
REMARK  8 active torsions:
REMARK  status: ('A' for Active; 'I' for Inactive)
REMARK    1  A    between atoms: _5  and  _11
REMARK    2  A    between atoms: _19  and  _21
REMARK    3  A    between atoms: _22  and  _66
REMARK    4  A    between atoms: _27  and  _30
REMARK    5  A    between atoms: _32  and  _33
REMARK    6  A    between atoms: _38  and  _43
REMARK    7  A    between atoms: _43  and  _46
REMARK    8  A    between atoms: _53  and  _55
REMARK                            x       y       z     vdW  Elec       q    Type
REMARK                         _______ _______ _______ _____ _____    ______ ____
ROOT
ATOM     10  C   UNL     1     -10.614 -13.553  -5.260  0.00  0.00    +0.038 A 
ATOM     11  C   UNL     1     -11.218 -14.502  -6.124  0.00  0.00    +0.047 A 
ATOM     12  C   UNL     1     -12.445 -14.193  -6.842  0.00  0.00    +0.035 A 
ATOM     32  C   UNL     1     -13.029 -12.905  -6.658  0.00  0.00    +0.024 A 
ATOM     33  C   UNL     1     -12.429 -11.929  -5.783  0.00  0.00    +0.007 A 
ATOM     34  C   UNL     1     -11.220 -12.230  -5.070  0.00  0.00    -0.029 A 
ATOM     35  C   UNL     1     -10.626 -11.147  -4.140  0.00  0.00    +0.045 C 
ENDROOT
BRANCH  10   9
ATOM      4  C   UNL     1      -8.260 -15.373  -1.493  0.00  0.00    +0.077 A 
ATOM      5  C   UNL     1      -9.478 -15.622  -0.778  0.00  0.00    +0.048 A 
ATOM      6  C   UNL     1     -10.689 -15.261  -1.411  0.00  0.00    +0.116 A 
ATOM      7  N   UNL     1     -10.671 -14.694  -2.667  0.00  0.00    -0.223 NA
ATOM      8  C   UNL     1      -9.478 -14.465  -3.329  0.00  0.00    +0.220 A 
ATOM      9  N   UNL     1      -9.437 -13.903  -4.595  0.00  0.00    -0.283 N 
ATOM     36  H   UNL     1      -8.537 -13.744  -5.047  0.00  0.00    +0.155 HD
ATOM     37  N   UNL     1      -8.309 -14.800  -2.745  0.00  0.00    -0.214 NA
BRANCH   4   3
ATOM      1  C   UNL     1      -4.961 -15.317   0.607  0.00  0.00    +0.020 A 
ATOM      2  C   UNL     1      -6.276 -14.958   0.127  0.00  0.00    +0.013 A 
ATOM      3  C   UNL     1      -6.901 -15.702  -0.959  0.00  0.00    +0.019 A 
ATOM     38  C   UNL     1      -6.165 -16.813  -1.541  0.00  0.00    +0.120 A 
ATOM     39  N   UNL     1      -4.900 -17.135  -1.059  0.00  0.00    -0.263 NA
ATOM     40  C   UNL     1      -4.287 -16.425  -0.016  0.00  0.00    +0.111 A 
ENDBRANCH   4   3
ENDBRANCH  10   9
BRANCH  12  13
ATOM     13  N   UNL     1     -13.107 -15.119  -7.727  0.00  0.00    -0.281 N 
ATOM     14  C   UNL     1     -12.664 -15.593  -8.951  0.00  0.00    +0.248 C 
ATOM     30  O   UNL     1     -11.722 -15.125  -9.573  0.00  0.00    -0.270 OA
ATOM     31  H   UNL     1     -14.013 -15.467  -7.413  0.00  0.00    +0.155 HD
BRANCH  14  15
ATOM     15  C   UNL     1     -13.379 -16.744  -9.581  0.00  0.00    +0.037 A 
ATOM     16  C   UNL     1     -13.138 -18.121  -9.143  0.00  0.00    +0.013 A 
ATOM     17  C   UNL     1     -13.829 -19.214  -9.780  0.00  0.00    +0.005 A 
ATOM     18  C   UNL     1     -14.770 -18.933 -10.861  0.00  0.00    -0.033 A 
ATOM     28  C   UNL     1     -14.994 -17.557 -11.273  0.00  0.00    +0.005 A 
ATOM     29  C   UNL     1     -14.318 -16.483 -10.652  0.00  0.00    +0.013 A 
BRANCH  18  19
ATOM     19  C   UNL     1     -15.535 -20.039 -11.612  0.00  0.00    +0.119 C 
BRANCH  19  20
ATOM     20  N   UNL     1     -15.954 -19.750 -13.016  0.00  0.00    -0.302 NA
ATOM     21  C   UNL     1     -17.445 -20.019 -13.238  0.00  0.00    +0.066 C 
ATOM     22  C   UNL     1     -17.870 -19.689 -14.706  0.00  0.00    -0.064 C 
ATOM     23  N   UNL     1     -17.020 -20.511 -15.677  0.00  0.00    +0.379 N 
ATOM     24  C   UNL     1     -17.457 -20.246 -17.056  0.00  0.00    -0.096 C 
ATOM     25  H   UNL     1     -17.209 -21.588 -15.463  0.00  0.00    -0.082 HD
ATOM     26  C   UNL     1     -15.536 -20.251 -15.461  0.00  0.00    -0.064 C 
ATOM     27  C   UNL     1     -15.130 -20.554 -13.992  0.00  0.00    +0.066 C 
ENDBRANCH  19  20
ENDBRANCH  18  19
ENDBRANCH  14  15
ENDBRANCH  12  13
TORSDOF 6
ENDMDL
