MODEL 1
REMARK VINA RESULT:      -8.4      0.000      0.000
REMARK  Name = C:\Users\Docking\Desktop\test protocol\1iep_ligandH.pdb
REMARK  8 active torsions:
REMARK  status: ('A' for Active; 'I' for Inactive)
REMARK    1  A    between atoms: _5  and  _11
REMARK    2  A    between atoms: _19  and  _21
REMARK    3  A    between atoms: _22  and  _66
REMARK    4  A    between atoms: _27  and  _30
REMARK    5  A    between atoms: _32  and  _33
REMARK    6  A    between atoms: _38  and  _43
REMARK    7  A    between atoms: _43  and  _46
REMARK    8  A    between atoms: _53  and  _55
REMARK                            x       y       z     vdW  Elec       q    Type
REMARK                         _______ _______ _______ _____ _____    ______ ____
ROOT
ATOM     10  C   UNL     1      46.276  33.389   9.349  0.00  0.00    +0.038 A 
ATOM     11  C   UNL     1      45.487  34.237   8.530  0.00  0.00    +0.047 A 
ATOM     12  C   UNL     1      44.637  35.266   9.109  0.00  0.00    +0.035 A 
ATOM     32  C   UNL     1      44.617  35.405  10.527  0.00  0.00    +0.024 A 
ATOM     33  C   UNL     1      45.411  34.551  11.375  0.00  0.00    +0.007 A 
ATOM     34  C   UNL     1      46.249  33.533  10.810  0.00  0.00    -0.029 A 
ATOM     35  C   UNL     1      47.074  32.642  11.767  0.00  0.00    +0.045 C 
ENDROOT
BRANCH  10   9
ATOM      4  C   UNL     1      47.247  28.840   8.169  0.00  0.00    +0.077 A 
ATOM      5  C   UNL     1      46.080  28.353   8.847  0.00  0.00    +0.048 A 
ATOM      6  C   UNL     1      45.260  29.305   9.493  0.00  0.00    +0.116 A 
ATOM      7  N   UNL     1      45.592  30.642   9.457  0.00  0.00    -0.223 NA
ATOM      8  C   UNL     1      46.725  31.078   8.796  0.00  0.00    +0.220 A 
ATOM      9  N   UNL     1      47.074  32.419   8.740  0.00  0.00    -0.283 N 
ATOM     36  H   UNL     1      47.922  32.699   8.248  0.00  0.00    +0.155 HD
ATOM     37  N   UNL     1      47.525  30.188   8.172  0.00  0.00    -0.214 NA
BRANCH   4   3
ATOM      1  C   UNL     1      49.770  25.980   7.300  0.00  0.00    +0.020 A 
ATOM      2  C   UNL     1      48.847  26.799   8.051  0.00  0.00    +0.013 A 
ATOM      3  C   UNL     1      48.210  27.957   7.437  0.00  0.00    +0.019 A 
ATOM     38  C   UNL     1      48.530  28.261   6.051  0.00  0.00    +0.120 A 
ATOM     39  N   UNL     1      49.424  27.454   5.353  0.00  0.00    -0.263 NA
ATOM     40  C   UNL     1      50.044  26.338   5.934  0.00  0.00    +0.111 A 
ENDBRANCH   4   3
ENDBRANCH  10   9
BRANCH  12  13
ATOM     13  N   UNL     1      43.809  36.151   8.328  0.00  0.00    -0.281 N 
ATOM     14  C   UNL     1      43.974  37.510   8.121  0.00  0.00    +0.248 C 
ATOM     30  O   UNL     1      44.744  38.217   8.754  0.00  0.00    -0.270 OA
ATOM     31  H   UNL     1      43.003  35.722   7.872  0.00  0.00    +0.155 HD
BRANCH  14  15
ATOM     15  C   UNL     1      43.155  38.185   7.068  0.00  0.00    +0.037 A 
ATOM     16  C   UNL     1      43.728  39.227   6.212  0.00  0.00    +0.013 A 
ATOM     17  C   UNL     1      42.911  39.874   5.215  0.00  0.00    +0.005 A 
ATOM     18  C   UNL     1      41.512  39.479   5.069  0.00  0.00    -0.033 A 
ATOM     28  C   UNL     1      40.971  38.439   5.929  0.00  0.00    +0.005 A 
ATOM     29  C   UNL     1      41.768  37.803   6.907  0.00  0.00    +0.013 A 
BRANCH  18  19
ATOM     19  C   UNL     1      40.561  40.130   4.047  0.00  0.00    +0.119 C 
BRANCH  19  20
ATOM     20  N   UNL     1      40.239  39.346   2.817  0.00  0.00    -0.302 NA
ATOM     21  C   UNL     1      41.491  39.032   1.992  0.00  0.00    +0.066 C 
ATOM     22  C   UNL     1      41.138  38.193   0.721  0.00  0.00    -0.064 C 
ATOM     23  N   UNL     1      40.111  38.953  -0.120  0.00  0.00    +0.379 N 
ATOM     24  C   UNL     1      39.821  38.193  -1.345  0.00  0.00    -0.096 C 
ATOM     25  H   UNL     1      40.573  39.921  -0.424  0.00  0.00    -0.082 HD
ATOM     26  C   UNL     1      38.865  39.271   0.694  0.00  0.00    -0.064 C 
ATOM     27  C   UNL     1      39.230  40.080   1.970  0.00  0.00    +0.066 C 
ENDBRANCH  19  20
ENDBRANCH  18  19
ENDBRANCH  14  15
ENDBRANCH  12  13
TORSDOF 6
ENDMDL
MODEL 2
REMARK VINA RESULT:      -8.3      3.713     12.918
REMARK  Name = C:\Users\Docking\Desktop\test protocol\1iep_ligandH.pdb
REMARK  8 active torsions:
REMARK  status: ('A' for Active; 'I' for Inactive)
REMARK    1  A    between atoms: _5  and  _11
REMARK    2  A    between atoms: _19  and  _21
REMARK    3  A    between atoms: _22  and  _66
REMARK    4  A    between atoms: _27  and  _30
REMARK    5  A    between atoms: _32  and  _33
REMARK    6  A    between atoms: _38  and  _43
REMARK    7  A    between atoms: _43  and  _46
REMARK    8  A    between atoms: _53  and  _55
REMARK                            x       y       z     vdW  Elec       q    Type
REMARK                         _______ _______ _______ _____ _____    ______ ____
ROOT
ATOM     10  C   UNL     1      45.839  33.244  10.016  0.00  0.00    +0.038 A 
ATOM     11  C   UNL     1      46.593  32.307   9.264  0.00  0.00    +0.047 A 
ATOM     12  C   UNL     1      46.755  30.935   9.717  0.00  0.00    +0.035 A 
ATOM     32  C   UNL     1      46.134  30.550  10.941  0.00  0.00    +0.024 A 
ATOM     33  C   UNL     1      45.366  31.489  11.719  0.00  0.00    +0.007 A 
ATOM     34  C   UNL     1      45.204  32.845  11.278  0.00  0.00    -0.029 A 
ATOM     35  C   UNL     1      44.375  33.812  12.155  0.00  0.00    +0.045 C 
ENDROOT
BRANCH  10   9
ATOM      4  C   UNL     1      43.275  36.832   8.121  0.00  0.00    +0.077 A 
ATOM      5  C   UNL     1      42.087  36.030   8.062  0.00  0.00    +0.048 A 
ATOM      6  C   UNL     1      42.180  34.697   8.523  0.00  0.00    +0.116 A 
ATOM      7  N   UNL     1      43.377  34.213   9.004  0.00  0.00    -0.223 NA
ATOM      8  C   UNL     1      44.504  35.013   9.046  0.00  0.00    +0.220 A 
ATOM      9  N   UNL     1      45.716  34.549   9.534  0.00  0.00    -0.283 N 
ATOM     36  H   UNL     1      46.527  35.168   9.540  0.00  0.00    +0.155 HD
ATOM     37  N   UNL     1      44.442  36.288   8.610  0.00  0.00    -0.214 NA
BRANCH   4   3
ATOM      1  C   UNL     1      44.590  40.322   6.944  0.00  0.00    +0.020 A 
ATOM      2  C   UNL     1      44.587  38.942   7.372  0.00  0.00    +0.013 A 
ATOM      3  C   UNL     1      43.336  38.259   7.674  0.00  0.00    +0.019 A 
ATOM     38  C   UNL     1      42.095  39.006   7.531  0.00  0.00    +0.120 A 
ATOM     39  N   UNL     1      42.129  40.335   7.118  0.00  0.00    -0.263 NA
ATOM     40  C   UNL     1      43.328  41.003   6.826  0.00  0.00    +0.111 A 
ENDBRANCH   4   3
ENDBRANCH  10   9
BRANCH  12  13
ATOM     13  N   UNL     1      47.515  29.941   9.000  0.00  0.00    -0.281 N 
ATOM     14  C   UNL     1      47.349  29.525   7.689  0.00  0.00    +0.248 C 
ATOM     30  O   UNL     1      46.379  29.794   6.996  0.00  0.00    -0.270 OA
ATOM     31  H   UNL     1      48.266  29.490   9.522  0.00  0.00    +0.155 HD
BRANCH  14  15
ATOM     15  C   UNL     1      48.407  28.676   7.062  0.00  0.00    +0.037 A 
ATOM     16  C   UNL     1      48.083  27.384   6.453  0.00  0.00    +0.013 A 
ATOM     17  C   UNL     1      49.125  26.577   5.870  0.00  0.00    +0.005 A 
ATOM     18  C   UNL     1      50.503  27.062   5.892  0.00  0.00    -0.033 A 
ATOM     28  C   UNL     1      50.796  28.350   6.498  0.00  0.00    +0.005 A 
ATOM     29  C   UNL     1      49.777  29.143   7.071  0.00  0.00    +0.013 A 
BRANCH  18  19
ATOM     19  C   UNL     1      51.682  26.258   5.312  0.00  0.00    +0.119 C 
BRANCH  19  20
ATOM     20  N   UNL     1      51.689  24.784   5.553  0.00  0.00    -0.302 NA
ATOM     21  C   UNL     1      51.946  24.443   7.023  0.00  0.00    +0.066 C 
ATOM     22  C   UNL     1      51.927  22.898   7.261  0.00  0.00    -0.064 C 
ATOM     23  N   UNL     1      52.969  22.233   6.360  0.00  0.00    +0.379 N 
ATOM     24  C   UNL     1      52.994  20.787   6.624  0.00  0.00    -0.096 C 
ATOM     25  H   UNL     1      53.967  22.645   6.638  0.00  0.00    -0.082 HD
ATOM     26  C   UNL     1      52.723  22.569   4.897  0.00  0.00    -0.064 C 
ATOM     27  C   UNL     1      52.714  24.108   4.676  0.00  0.00    +0.066 C 
ENDBRANCH  19  20
ENDBRANCH  18  19
ENDBRANCH  14  15
ENDBRANCH  12  13
TORSDOF 6
ENDMDL
MODEL 3
REMARK VINA RESULT:      -8.2      5.286     13.062
REMARK  Name = C:\Users\Docking\Desktop\test protocol\1iep_ligandH.pdb
REMARK  8 active torsions:
REMARK  status: ('A' for Active; 'I' for Inactive)
REMARK    1  A    between atoms: _5  and  _11
REMARK    2  A    between atoms: _19  and  _21
REMARK    3  A    between atoms: _22  and  _66
REMARK    4  A    between atoms: _27  and  _30
REMARK    5  A    between atoms: _32  and  _33
REMARK    6  A    between atoms: _38  and  _43
REMARK    7  A    between atoms: _43  and  _46
REMARK    8  A    between atoms: _53  and  _55
REMARK                            x       y       z     vdW  Elec       q    Type
REMARK                         _______ _______ _______ _____ _____    ______ ____
ROOT
ATOM     10  C   UNL     1      45.940  30.432   8.652  0.00  0.00    +0.038 A 
ATOM     11  C   UNL     1      47.144  29.980   8.054  0.00  0.00    +0.047 A 
ATOM     12  C   UNL     1      47.524  28.577   8.093  0.00  0.00    +0.035 A 
ATOM     32  C   UNL     1      46.652  27.659   8.749  0.00  0.00    +0.024 A 
ATOM     33  C   UNL     1      45.425  28.101   9.363  0.00  0.00    +0.007 A 
ATOM     34  C   UNL     1      45.046  29.485   9.329  0.00  0.00    -0.029 A 
ATOM     35  C   UNL     1      43.722  29.903  10.010  0.00  0.00    +0.045 C 
ENDROOT
BRANCH  10   9
ATOM      4  C   UNL     1      46.138  34.913  10.360  0.00  0.00    +0.077 A 
ATOM      5  C   UNL     1      46.913  34.508  11.497  0.00  0.00    +0.048 A 
ATOM      6  C   UNL     1      47.233  33.137  11.610  0.00  0.00    +0.116 A 
ATOM      7  N   UNL     1      46.806  32.245  10.650  0.00  0.00    -0.223 NA
ATOM      8  C   UNL     1      46.059  32.668   9.566  0.00  0.00    +0.220 A 
ATOM      9  N   UNL     1      45.625  31.791   8.584  0.00  0.00    -0.283 N 
ATOM     36  H   UNL     1      45.070  32.141   7.804  0.00  0.00    +0.155 HD
ATOM     37  N   UNL     1      45.738  33.973   9.437  0.00  0.00    -0.214 NA
BRANCH   4   3
ATOM      1  C   UNL     1      44.213  38.059   9.057  0.00  0.00    +0.020 A 
ATOM      2  C   UNL     1      44.572  36.677   9.277  0.00  0.00    +0.013 A 
ATOM      3  C   UNL     1      45.723  36.328  10.100  0.00  0.00    +0.019 A 
ATOM     38  C   UNL     1      46.496  37.409  10.691  0.00  0.00    +0.120 A 
ATOM     39  N   UNL     1      46.128  38.731  10.461  0.00  0.00    -0.263 NA
ATOM     40  C   UNL     1      45.023  39.079   9.669  0.00  0.00    +0.111 A 
ENDBRANCH   4   3
ENDBRANCH  10   9
BRANCH  12  13
ATOM     13  N   UNL     1      48.738  28.061   7.510  0.00  0.00    -0.281 N 
ATOM     14  C   UNL     1      49.398  26.883   7.821  0.00  0.00    +0.248 C 
ATOM     30  O   UNL     1      49.159  26.195   8.801  0.00  0.00    -0.270 OA
ATOM     31  H   UNL     1      49.162  28.634   6.781  0.00  0.00    +0.155 HD
BRANCH  14  15
ATOM     15  C   UNL     1      50.492  26.410   6.919  0.00  0.00    +0.037 A 
ATOM     16  C   UNL     1      51.133  27.315   5.962  0.00  0.00    +0.013 A 
ATOM     17  C   UNL     1      52.174  26.828   5.091  0.00  0.00    +0.005 A 
ATOM     18  C   UNL     1      52.581  25.428   5.176  0.00  0.00    -0.033 A 
ATOM     28  C   UNL     1      51.932  24.553   6.138  0.00  0.00    +0.005 A 
ATOM     29  C   UNL     1      50.911  25.026   6.992  0.00  0.00    +0.013 A 
BRANCH  18  19
ATOM     19  C   UNL     1      53.669  24.817   4.272  0.00  0.00    +0.119 C 
BRANCH  19  20
ATOM     20  N   UNL     1      53.876  25.445   2.933  0.00  0.00    -0.302 NA
ATOM     21  C   UNL     1      53.962  24.401   1.816  0.00  0.00    +0.066 C 
ATOM     22  C   UNL     1      54.156  25.076   0.419  0.00  0.00    -0.064 C 
ATOM     23  N   UNL     1      55.416  25.943   0.446  0.00  0.00    +0.379 N 
ATOM     24  C   UNL     1      55.634  26.534  -0.882  0.00  0.00    -0.096 C 
ATOM     25  H   UNL     1      56.281  25.276   0.667  0.00  0.00    -0.082 HD
ATOM     26  C   UNL     1      55.341  26.983   1.556  0.00  0.00    -0.064 C 
ATOM     27  C   UNL     1      55.118  26.303   2.936  0.00  0.00    +0.066 C 
ENDBRANCH  19  20
ENDBRANCH  18  19
ENDBRANCH  14  15
ENDBRANCH  12  13
TORSDOF 6
ENDMDL
MODEL 4
REMARK VINA RESULT:      -8.1      3.776      7.754
REMARK  Name = C:\Users\Docking\Desktop\test protocol\1iep_ligandH.pdb
REMARK  8 active torsions:
REMARK  status: ('A' for Active; 'I' for Inactive)
REMARK    1  A    between atoms: _5  and  _11
REMARK    2  A    between atoms: _19  and  _21
REMARK    3  A    between atoms: _22  and  _66
REMARK    4  A    between atoms: _27  and  _30
REMARK    5  A    between atoms: _32  and  _33
REMARK    6  A    between atoms: _38  and  _43
REMARK    7  A    between atoms: _43  and  _46
REMARK    8  A    between atoms: _53  and  _55
REMARK                            x       y       z     vdW  Elec       q    Type
REMARK                         _______ _______ _______ _____ _____    ______ ____
ROOT
ATOM     10  C   UNL     1      43.459  39.249   5.869  0.00  0.00    +0.038 A 
ATOM     11  C   UNL     1      42.637  38.928   4.759  0.00  0.00    +0.047 A 
ATOM     12  C   UNL     1      41.845  39.948   4.089  0.00  0.00    +0.035 A 
ATOM     32  C   UNL     1      41.918  41.286   4.574  0.00  0.00    +0.024 A 
ATOM     33  C   UNL     1      42.748  41.630   5.702  0.00  0.00    +0.007 A 
ATOM     34  C   UNL     1      43.529  40.627   6.368  0.00  0.00    -0.029 A 
ATOM     35  C   UNL     1      44.396  41.052   7.576  0.00  0.00    +0.045 C 
ENDROOT
BRANCH  10   9
ATOM      4  C   UNL     1      44.001  35.793   9.155  0.00  0.00    +0.077 A 
ATOM      5  C   UNL     1      42.714  36.057   9.732  0.00  0.00    +0.048 A 
ATOM      6  C   UNL     1      41.947  37.096   9.158  0.00  0.00    +0.116 A 
ATOM      7  N   UNL     1      42.440  37.810   8.087  0.00  0.00    -0.223 NA
ATOM      8  C   UNL     1      43.686  37.530   7.556  0.00  0.00    +0.220 A 
ATOM      9  N   UNL     1      44.198  38.230   6.475  0.00  0.00    -0.283 N 
ATOM     36  H   UNL     1      45.124  37.998   6.117  0.00  0.00    +0.155 HD
ATOM     37  N   UNL     1      44.438  36.544   8.087  0.00  0.00    -0.214 NA
BRANCH   4   3
ATOM      1  C   UNL     1      46.704  32.969   9.298  0.00  0.00    +0.020 A 
ATOM      2  C   UNL     1      45.829  33.991   8.770  0.00  0.00    +0.013 A 
ATOM      3  C   UNL     1      44.927  34.725   9.649  0.00  0.00    +0.019 A 
ATOM     38  C   UNL     1      44.935  34.399  11.067  0.00  0.00    +0.120 A 
ATOM     39  N   UNL     1      45.788  33.409  11.546  0.00  0.00    -0.263 NA
ATOM     40  C   UNL     1      46.659  32.695  10.710  0.00  0.00    +0.111 A 
ENDBRANCH   4   3
ENDBRANCH  10   9
BRANCH  12  13
ATOM     13  N   UNL     1      40.986  39.680   2.963  0.00  0.00    -0.281 N 
ATOM     14  C   UNL     1      41.194  38.785   1.927  0.00  0.00    +0.248 C 
ATOM     30  O   UNL     1      42.258  38.229   1.697  0.00  0.00    -0.270 OA
ATOM     31  H   UNL     1      40.118  40.215   2.925  0.00  0.00    +0.155 HD
BRANCH  14  15
ATOM     15  C   UNL     1      40.061  38.473   1.003  0.00  0.00    +0.037 A 
ATOM     16  C   UNL     1      39.945  37.162   0.358  0.00  0.00    +0.013 A 
ATOM     17  C   UNL     1      38.852  36.893  -0.541  0.00  0.00    +0.005 A 
ATOM     18  C   UNL     1      37.863  37.937  -0.800  0.00  0.00    -0.033 A 
ATOM     28  C   UNL     1      38.000  39.227  -0.143  0.00  0.00    +0.005 A 
ATOM     29  C   UNL     1      39.071  39.494   0.739  0.00  0.00    +0.013 A 
BRANCH  18  19
ATOM     19  C   UNL     1      36.676  37.745  -1.762  0.00  0.00    +0.119 C 
BRANCH  19  20
ATOM     20  N   UNL     1      35.416  38.483  -1.448  0.00  0.00    -0.302 NA
ATOM     21  C   UNL     1      34.507  37.692  -0.502  0.00  0.00    +0.066 C 
ATOM     22  C   UNL     1      33.204  38.488  -0.167  0.00  0.00    -0.064 C 
ATOM     23  N   UNL     1      32.469  38.828  -1.464  0.00  0.00    +0.379 N 
ATOM     24  C   UNL     1      31.214  39.526  -1.149  0.00  0.00    -0.096 C 
ATOM     25  H   UNL     1      32.206  37.868  -1.966  0.00  0.00    -0.082 HD
ATOM     26  C   UNL     1      33.366  39.613  -2.412  0.00  0.00    -0.064 C 
ATOM     27  C   UNL     1      34.672  38.826  -2.715  0.00  0.00    +0.066 C 
ENDBRANCH  19  20
ENDBRANCH  18  19
ENDBRANCH  14  15
ENDBRANCH  12  13
TORSDOF 6
ENDMDL
MODEL 5
REMARK VINA RESULT:      -8.1      4.134     12.597
REMARK  Name = C:\Users\Docking\Desktop\test protocol\1iep_ligandH.pdb
REMARK  8 active torsions:
REMARK  status: ('A' for Active; 'I' for Inactive)
REMARK    1  A    between atoms: _5  and  _11
REMARK    2  A    between atoms: _19  and  _21
REMARK    3  A    between atoms: _22  and  _66
REMARK    4  A    between atoms: _27  and  _30
REMARK    5  A    between atoms: _32  and  _33
REMARK    6  A    between atoms: _38  and  _43
REMARK    7  A    between atoms: _43  and  _46
REMARK    8  A    between atoms: _53  and  _55
REMARK                            x       y       z     vdW  Elec       q    Type
REMARK                         _______ _______ _______ _____ _____    ______ ____
ROOT
ATOM     10  C   UNL     1      41.851  39.811   4.755  0.00  0.00    +0.038 A 
ATOM     11  C   UNL     1      42.447  38.860   5.623  0.00  0.00    +0.047 A 
ATOM     12  C   UNL     1      43.683  39.157   6.330  0.00  0.00    +0.035 A 
ATOM     32  C   UNL     1      44.284  40.434   6.132  0.00  0.00    +0.024 A 
ATOM     33  C   UNL     1      43.693  41.412   5.252  0.00  0.00    +0.007 A 
ATOM     34  C   UNL     1      42.475  41.123   4.550  0.00  0.00    -0.029 A 
ATOM     35  C   UNL     1      41.889  42.207   3.615  0.00  0.00    +0.045 C 
ENDROOT
BRANCH  10   9
ATOM      4  C   UNL     1      39.443  38.046   0.997  0.00  0.00    +0.077 A 
ATOM      5  C   UNL     1      40.650  37.803   0.262  0.00  0.00    +0.048 A 
ATOM      6  C   UNL     1      41.870  38.153   0.884  0.00  0.00    +0.116 A 
ATOM      7  N   UNL     1      41.870  38.703   2.147  0.00  0.00    -0.223 NA
ATOM      8  C   UNL     1      40.687  38.927   2.828  0.00  0.00    +0.220 A 
ATOM      9  N   UNL     1      40.664  39.472   4.102  0.00  0.00    -0.283 N 
ATOM     36  H   UNL     1      39.770  39.628   4.567  0.00  0.00    +0.155 HD
ATOM     37  N   UNL     1      39.509  38.603   2.255  0.00  0.00    -0.214 NA
BRANCH   4   3
ATOM      1  C   UNL     1      36.182  38.028  -1.163  0.00  0.00    +0.020 A 
ATOM      2  C   UNL     1      37.506  38.373  -0.701  0.00  0.00    +0.013 A 
ATOM      3  C   UNL     1      38.076  37.728   0.476  0.00  0.00    +0.019 A 
ATOM     38  C   UNL     1      37.273  36.731   1.167  0.00  0.00    +0.120 A 
ATOM     39  N   UNL     1      35.999  36.420   0.699  0.00  0.00    -0.263 NA
ATOM     40  C   UNL     1      35.440  37.036  -0.431  0.00  0.00    +0.111 A 
ENDBRANCH   4   3
ENDBRANCH  10   9
BRANCH  12  13
ATOM     13  N   UNL     1      44.338  38.229   7.218  0.00  0.00    -0.281 N 
ATOM     14  C   UNL     1      43.953  37.856   8.495  0.00  0.00    +0.248 C 
ATOM     30  O   UNL     1      43.098  38.429   9.154  0.00  0.00    -0.270 OA
ATOM     31  H   UNL     1      45.189  37.794   6.861  0.00  0.00    +0.155 HD
BRANCH  14  15
ATOM     15  C   UNL     1      44.625  36.687   9.139  0.00  0.00    +0.037 A 
ATOM     16  C   UNL     1      44.455  35.329   8.615  0.00  0.00    +0.013 A 
ATOM     17  C   UNL     1      45.100  34.216   9.265  0.00  0.00    +0.005 A 
ATOM     18  C   UNL     1      45.924  34.458  10.447  0.00  0.00    -0.033 A 
ATOM     28  C   UNL     1      46.080  35.815  10.944  0.00  0.00    +0.005 A 
ATOM     29  C   UNL     1      45.447  36.908  10.309  0.00  0.00    +0.013 A 
BRANCH  18  19
ATOM     19  C   UNL     1      46.633  33.328  11.218  0.00  0.00    +0.119 C 
BRANCH  19  20
ATOM     20  N   UNL     1      47.049  33.614  12.623  0.00  0.00    -0.302 NA
ATOM     21  C   UNL     1      48.557  33.856  12.737  0.00  0.00    +0.066 C 
ATOM     22  C   UNL     1      48.971  34.177  14.210  0.00  0.00    -0.064 C 
ATOM     23  N   UNL     1      48.536  33.028  15.121  0.00  0.00    +0.379 N 
ATOM     24  C   UNL     1      48.976  33.300  16.498  0.00  0.00    -0.096 C 
ATOM     25  H   UNL     1      49.059  32.106  14.775  0.00  0.00    -0.082 HD
ATOM     26  C   UNL     1      47.039  32.779  15.012  0.00  0.00    -0.064 C 
ATOM     27  C   UNL     1      46.633  32.490  13.539  0.00  0.00    +0.066 C 
ENDBRANCH  19  20
ENDBRANCH  18  19
ENDBRANCH  14  15
ENDBRANCH  12  13
TORSDOF 6
ENDMDL
