MODEL 1
REMARK VINA RESULT:      -8.2      0.000      0.000
REMARK  Name = C:\Users\Docking\Desktop\test protocol\1iep_ligandH.pdb
REMARK  8 active torsions:
REMARK  status: ('A' for Active; 'I' for Inactive)
REMARK    1  A    between atoms: _5  and  _11
REMARK    2  A    between atoms: _19  and  _21
REMARK    3  A    between atoms: _22  and  _66
REMARK    4  A    between atoms: _27  and  _30
REMARK    5  A    between atoms: _32  and  _33
REMARK    6  A    between atoms: _38  and  _43
REMARK    7  A    between atoms: _43  and  _46
REMARK    8  A    between atoms: _53  and  _55
REMARK                            x       y       z     vdW  Elec       q    Type
REMARK                         _______ _______ _______ _____ _____    ______ ____
ROOT
ATOM     10  C   UNL     1      15.142 -20.396   9.260  0.00  0.00    +0.038 A 
ATOM     11  C   UNL     1      14.368 -19.549   8.426  0.00  0.00    +0.047 A 
ATOM     12  C   UNL     1      13.505 -18.523   8.989  0.00  0.00    +0.035 A 
ATOM     32  C   UNL     1      13.456 -18.384  10.406  0.00  0.00    +0.024 A 
ATOM     33  C   UNL     1      14.235 -19.237  11.269  0.00  0.00    +0.007 A 
ATOM     34  C   UNL     1      15.087 -20.253  10.720  0.00  0.00    -0.029 A 
ATOM     35  C   UNL     1      15.895 -21.142  11.693  0.00  0.00    +0.045 C 
ENDROOT
BRANCH  10   9
ATOM      4  C   UNL     1      16.133 -24.939   8.074  0.00  0.00    +0.077 A 
ATOM      5  C   UNL     1      14.947 -25.428   8.715  0.00  0.00    +0.048 A 
ATOM      6  C   UNL     1      14.112 -24.478   9.345  0.00  0.00    +0.116 A 
ATOM      7  N   UNL     1      14.448 -23.142   9.328  0.00  0.00    -0.223 NA
ATOM      8  C   UNL     1      15.601 -22.704   8.702  0.00  0.00    +0.220 A 
ATOM      9  N   UNL     1      15.954 -21.364   8.666  0.00  0.00    -0.283 N 
ATOM     36  H   UNL     1      16.817 -21.083   8.200  0.00  0.00    +0.155 HD
ATOM     37  N   UNL     1      16.416 -23.592   8.094  0.00  0.00    -0.214 NA
BRANCH   4   3
ATOM      1  C   UNL     1      18.685 -27.790   7.260  0.00  0.00    +0.020 A 
ATOM      2  C   UNL     1      17.745 -26.973   7.991  0.00  0.00    +0.013 A 
ATOM      3  C   UNL     1      17.114 -25.819   7.362  0.00  0.00    +0.019 A 
ATOM     38  C   UNL     1      17.460 -25.518   5.981  0.00  0.00    +0.120 A 
ATOM     39  N   UNL     1      18.370 -26.322   5.303  0.00  0.00    -0.263 NA
ATOM     40  C   UNL     1      18.984 -27.434   5.898  0.00  0.00    +0.111 A 
ENDBRANCH   4   3
ENDBRANCH  10   9
BRANCH  12  13
ATOM     13  N   UNL     1      12.690 -17.639   8.192  0.00  0.00    -0.281 N 
ATOM     14  C   UNL     1      12.740 -16.256   8.132  0.00  0.00    +0.248 C 
ATOM     30  O   UNL     1      13.354 -15.553   8.921  0.00  0.00    -0.270 OA
ATOM     31  H   UNL     1      11.991 -18.088   7.600  0.00  0.00    +0.155 HD
BRANCH  14  15
ATOM     15  C   UNL     1      11.989 -15.552   7.049  0.00  0.00    +0.037 A 
ATOM     16  C   UNL     1      12.629 -14.526   6.223  0.00  0.00    +0.013 A 
ATOM     17  C   UNL     1      11.876 -13.851   5.196  0.00  0.00    +0.005 A 
ATOM     18  C   UNL     1      10.473 -14.200   4.990  0.00  0.00    -0.033 A 
ATOM     28  C   UNL     1       9.864 -15.225   5.821  0.00  0.00    +0.005 A 
ATOM     29  C   UNL     1      10.598 -15.889   6.829  0.00  0.00    +0.013 A 
BRANCH  18  19
ATOM     19  C   UNL     1       9.587 -13.516   3.932  0.00  0.00    +0.119 C 
BRANCH  19  20
ATOM     20  N   UNL     1       9.180 -14.332   2.749  0.00  0.00    -0.302 NA
ATOM     21  C   UNL     1      10.345 -14.564   1.783  0.00  0.00    +0.066 C 
ATOM     22  C   UNL     1       9.907 -15.438   0.563  0.00  0.00    -0.064 C 
ATOM     23  N   UNL     1       8.737 -14.761  -0.153  0.00  0.00    +0.379 N 
ATOM     24  C   UNL     1       8.361 -15.551  -1.334  0.00  0.00    -0.096 C 
ATOM     25  H   UNL     1       9.089 -13.766  -0.510  0.00  0.00    -0.082 HD
ATOM     26  C   UNL     1       7.575 -14.524   0.802  0.00  0.00    -0.064 C 
ATOM     27  C   UNL     1       8.028 -13.679   2.025  0.00  0.00    +0.066 C 
ENDBRANCH  19  20
ENDBRANCH  18  19
ENDBRANCH  14  15
ENDBRANCH  12  13
TORSDOF 6
ENDMDL
MODEL 2
REMARK VINA RESULT:      -8.2      3.501      7.412
REMARK  Name = C:\Users\Docking\Desktop\test protocol\1iep_ligandH.pdb
REMARK  8 active torsions:
REMARK  status: ('A' for Active; 'I' for Inactive)
REMARK    1  A    between atoms: _5  and  _11
REMARK    2  A    between atoms: _19  and  _21
REMARK    3  A    between atoms: _22  and  _66
REMARK    4  A    between atoms: _27  and  _30
REMARK    5  A    between atoms: _32  and  _33
REMARK    6  A    between atoms: _38  and  _43
REMARK    7  A    between atoms: _43  and  _46
REMARK    8  A    between atoms: _53  and  _55
REMARK                            x       y       z     vdW  Elec       q    Type
REMARK                         _______ _______ _______ _____ _____    ______ ____
ROOT
ATOM     10  C   UNL     1      12.253 -14.453   6.335  0.00  0.00    +0.038 A 
ATOM     11  C   UNL     1      11.491 -14.678   5.160  0.00  0.00    +0.047 A 
ATOM     12  C   UNL     1      10.643 -13.636   4.602  0.00  0.00    +0.035 A 
ATOM     32  C   UNL     1      10.596 -12.376   5.266  0.00  0.00    +0.024 A 
ATOM     33  C   UNL     1      11.364 -12.130   6.461  0.00  0.00    +0.007 A 
ATOM     34  C   UNL     1      12.200 -13.154   7.018  0.00  0.00    -0.029 A 
ATOM     35  C   UNL     1      12.996 -12.837   8.305  0.00  0.00    +0.045 C 
ENDROOT
BRANCH  10   9
ATOM      4  C   UNL     1      12.890 -18.436   8.936  0.00  0.00    +0.077 A 
ATOM      5  C   UNL     1      11.523 -18.439   9.374  0.00  0.00    +0.048 A 
ATOM      6  C   UNL     1      10.692 -17.394   8.913  0.00  0.00    +0.116 A 
ATOM      7  N   UNL     1      11.199 -16.424   8.076  0.00  0.00    -0.223 NA
ATOM      8  C   UNL     1      12.522 -16.449   7.674  0.00  0.00    +0.220 A 
ATOM      9  N   UNL     1      13.051 -15.488   6.827  0.00  0.00    -0.283 N 
ATOM     36  H   UNL     1      14.034 -15.538   6.559  0.00  0.00    +0.155 HD
ATOM     37  N   UNL     1      13.337 -17.436   8.102  0.00  0.00    -0.214 NA
BRANCH   4   3
ATOM      1  C   UNL     1      15.450 -21.391   8.823  0.00  0.00    +0.020 A 
ATOM      2  C   UNL     1      14.486 -20.407   8.386  0.00  0.00    +0.013 A 
ATOM      3  C   UNL     1      13.891 -19.475   9.335  0.00  0.00    +0.019 A 
ATOM     38  C   UNL     1      14.296 -19.565  10.730  0.00  0.00    +0.120 A 
ATOM     39  N   UNL     1      15.225 -20.524  11.122  0.00  0.00    -0.263 NA
ATOM     40  C   UNL     1      15.803 -21.428  10.218  0.00  0.00    +0.111 A 
ENDBRANCH   4   3
ENDBRANCH  10   9
BRANCH  12  13
ATOM     13  N   UNL     1       9.840 -13.810   3.417  0.00  0.00    -0.281 N 
ATOM     14  C   UNL     1      10.125 -14.578   2.300  0.00  0.00    +0.248 C 
ATOM     30  O   UNL     1      11.219 -15.068   2.059  0.00  0.00    -0.270 OA
ATOM     31  H   UNL     1       8.954 -13.304   3.399  0.00  0.00    +0.155 HD
BRANCH  14  15
ATOM     15  C   UNL     1       9.043 -14.827   1.300  0.00  0.00    +0.037 A 
ATOM     16  C   UNL     1       7.756 -14.133   1.384  0.00  0.00    +0.013 A 
ATOM     17  C   UNL     1       6.723 -14.404   0.416  0.00  0.00    +0.005 A 
ATOM     18  C   UNL     1       6.975 -15.375  -0.647  0.00  0.00    -0.033 A 
ATOM     28  C   UNL     1       8.263 -16.046  -0.710  0.00  0.00    +0.005 A 
ATOM     29  C   UNL     1       9.277 -15.783   0.238  0.00  0.00    +0.013 A 
BRANCH  18  19
ATOM     19  C   UNL     1       5.923 -15.742  -1.710  0.00  0.00    +0.119 C 
BRANCH  19  20
ATOM     20  N   UNL     1       4.553 -15.172  -1.543  0.00  0.00    -0.302 NA
ATOM     21  C   UNL     1       3.649 -16.084  -0.710  0.00  0.00    +0.066 C 
ATOM     22  C   UNL     1       2.226 -15.462  -0.526  0.00  0.00    -0.064 C 
ATOM     23  N   UNL     1       1.608 -15.194  -1.899  0.00  0.00    +0.379 N 
ATOM     24  C   UNL     1       0.248 -14.662  -1.729  0.00  0.00    -0.096 C 
ATOM     25  H   UNL     1       1.526 -16.171  -2.429  0.00  0.00    -0.082 HD
ATOM     26  C   UNL     1       2.503 -14.289  -2.735  0.00  0.00    -0.064 C 
ATOM     27  C   UNL     1       3.922 -14.903  -2.887  0.00  0.00    +0.066 C 
ENDBRANCH  19  20
ENDBRANCH  18  19
ENDBRANCH  14  15
ENDBRANCH  12  13
TORSDOF 6
ENDMDL
MODEL 3
REMARK VINA RESULT:      -8.2      5.084     12.701
REMARK  Name = C:\Users\Docking\Desktop\test protocol\1iep_ligandH.pdb
REMARK  8 active torsions:
REMARK  status: ('A' for Active; 'I' for Inactive)
REMARK    1  A    between atoms: _5  and  _11
REMARK    2  A    between atoms: _19  and  _21
REMARK    3  A    between atoms: _22  and  _66
REMARK    4  A    between atoms: _27  and  _30
REMARK    5  A    between atoms: _32  and  _33
REMARK    6  A    between atoms: _38  and  _43
REMARK    7  A    between atoms: _43  and  _46
REMARK    8  A    between atoms: _53  and  _55
REMARK                            x       y       z     vdW  Elec       q    Type
REMARK                         _______ _______ _______ _____ _____    ______ ____
ROOT
ATOM     10  C   UNL     1      11.916 -14.099   6.587  0.00  0.00    +0.038 A 
ATOM     11  C   UNL     1      12.624 -15.107   7.290  0.00  0.00    +0.047 A 
ATOM     12  C   UNL     1      12.906 -14.978   8.711  0.00  0.00    +0.035 A 
ATOM     32  C   UNL     1      12.449 -13.809   9.387  0.00  0.00    +0.024 A 
ATOM     33  C   UNL     1      11.728 -12.774   8.688  0.00  0.00    +0.007 A 
ATOM     34  C   UNL     1      11.450 -12.895   7.286  0.00  0.00    -0.029 A 
ATOM     35  C   UNL     1      10.679 -11.751   6.586  0.00  0.00    +0.045 C 
ENDROOT
BRANCH  10   9
ATOM      4  C   UNL     1       9.203 -15.625   2.933  0.00  0.00    +0.077 A 
ATOM      5  C   UNL     1       8.197 -16.139   3.818  0.00  0.00    +0.048 A 
ATOM      6  C   UNL     1       8.420 -15.997   5.206  0.00  0.00    +0.116 A 
ATOM      7  N   UNL     1       9.566 -15.384   5.664  0.00  0.00    -0.223 NA
ATOM      8  C   UNL     1      10.517 -14.901   4.784  0.00  0.00    +0.220 A 
ATOM      9  N   UNL     1      11.673 -14.275   5.223  0.00  0.00    -0.283 N 
ATOM     36  H   UNL     1      12.354 -13.938   4.543  0.00  0.00    +0.155 HD
ATOM     37  N   UNL     1      10.329 -15.026   3.454  0.00  0.00    -0.214 NA
BRANCH   4   3
ATOM      1  C   UNL     1       9.515 -14.771  -0.871  0.00  0.00    +0.020 A 
ATOM      2  C   UNL     1       9.629 -14.653   0.564  0.00  0.00    +0.013 A 
ATOM      3  C   UNL     1       9.111 -15.696   1.441  0.00  0.00    +0.019 A 
ATOM     38  C   UNL     1       8.480 -16.855   0.828  0.00  0.00    +0.120 A 
ATOM     39  N   UNL     1       8.383 -16.941  -0.557  0.00  0.00    -0.263 NA
ATOM     40  C   UNL     1       8.876 -15.942  -1.411  0.00  0.00    +0.111 A 
ENDBRANCH   4   3
ENDBRANCH  10   9
BRANCH  12  13
ATOM     13  N   UNL     1      13.628 -15.965   9.475  0.00  0.00    -0.281 N 
ATOM     14  C   UNL     1      14.867 -15.834  10.080  0.00  0.00    +0.248 C 
ATOM     30  O   UNL     1      15.642 -14.912   9.875  0.00  0.00    -0.270 OA
ATOM     31  H   UNL     1      13.170 -16.870   9.582  0.00  0.00    +0.155 HD
BRANCH  14  15
ATOM     15  C   UNL     1      15.315 -16.887  11.042  0.00  0.00    +0.037 A 
ATOM     16  C   UNL     1      15.155 -16.714  12.488  0.00  0.00    +0.013 A 
ATOM     17  C   UNL     1      15.612 -17.738  13.394  0.00  0.00    +0.005 A 
ATOM     18  C   UNL     1      16.233 -18.946  12.855  0.00  0.00    -0.033 A 
ATOM     28  C   UNL     1      16.374 -19.094  11.416  0.00  0.00    +0.005 A 
ATOM     29  C   UNL     1      15.929 -18.092  10.525  0.00  0.00    +0.013 A 
BRANCH  18  19
ATOM     19  C   UNL     1      16.768 -20.080  13.749  0.00  0.00    +0.119 C 
BRANCH  19  20
ATOM     20  N   UNL     1      17.032 -19.755  15.182  0.00  0.00    -0.302 NA
ATOM     21  C   UNL     1      18.475 -19.297  15.412  0.00  0.00    +0.066 C 
ATOM     22  C   UNL     1      18.727 -18.940  16.913  0.00  0.00    -0.064 C 
ATOM     23  N   UNL     1      18.398 -20.153  17.785  0.00  0.00    +0.379 N 
ATOM     24  C   UNL     1      18.689 -19.839  19.191  0.00  0.00    -0.096 C 
ATOM     25  H   UNL     1      19.075 -20.983  17.476  0.00  0.00    -0.082 HD
ATOM     26  C   UNL     1      16.966 -20.617  17.561  0.00  0.00    -0.064 C 
ATOM     27  C   UNL     1      16.718 -20.941  16.061  0.00  0.00    +0.066 C 
ENDBRANCH  19  20
ENDBRANCH  18  19
ENDBRANCH  14  15
ENDBRANCH  12  13
TORSDOF 6
ENDMDL
MODEL 4
REMARK VINA RESULT:      -8.2     12.164     15.357
REMARK  Name = C:\Users\Docking\Desktop\test protocol\1iep_ligandH.pdb
REMARK  8 active torsions:
REMARK  status: ('A' for Active; 'I' for Inactive)
REMARK    1  A    between atoms: _5  and  _11
REMARK    2  A    between atoms: _19  and  _21
REMARK    3  A    between atoms: _22  and  _66
REMARK    4  A    between atoms: _27  and  _30
REMARK    5  A    between atoms: _32  and  _33
REMARK    6  A    between atoms: _38  and  _43
REMARK    7  A    between atoms: _43  and  _46
REMARK    8  A    between atoms: _53  and  _55
REMARK                            x       y       z     vdW  Elec       q    Type
REMARK                         _______ _______ _______ _____ _____    ______ ____
ROOT
ATOM     10  C   UNL     1      21.773 -31.615   6.814  0.00  0.00    +0.038 A 
ATOM     11  C   UNL     1      21.222 -30.912   7.916  0.00  0.00    +0.047 A 
ATOM     12  C   UNL     1      20.694 -31.620   9.072  0.00  0.00    +0.035 A 
ATOM     32  C   UNL     1      20.745 -33.044   9.073  0.00  0.00    +0.024 A 
ATOM     33  C   UNL     1      21.300 -33.775   7.961  0.00  0.00    +0.007 A 
ATOM     34  C   UNL     1      21.820 -33.082   6.817  0.00  0.00    -0.029 A 
ATOM     35  C   UNL     1      22.398 -33.917   5.651  0.00  0.00    +0.045 C 
ENDROOT
BRANCH  10   9
ATOM      4  C   UNL     1      21.957 -27.652   4.114  0.00  0.00    +0.077 A 
ATOM      5  C   UNL     1      20.968 -26.989   4.914  0.00  0.00    +0.048 A 
ATOM      6  C   UNL     1      20.431 -27.705   6.007  0.00  0.00    +0.116 A 
ATOM      7  N   UNL     1      20.860 -28.988   6.271  0.00  0.00    -0.223 NA
ATOM      8  C   UNL     1      21.815 -29.599   5.478  0.00  0.00    +0.220 A 
ATOM      9  N   UNL     1      22.266 -30.885   5.730  0.00  0.00    -0.283 N 
ATOM     36  H   UNL     1      22.966 -31.303   5.118  0.00  0.00    +0.155 HD
ATOM     37  N   UNL     1      22.341 -28.936   4.428  0.00  0.00    -0.214 NA
BRANCH   4   3
ATOM      1  C   UNL     1      22.604 -25.571   0.865  0.00  0.00    +0.020 A 
ATOM      2  C   UNL     1      21.917 -26.151   1.996  0.00  0.00    +0.013 A 
ATOM      3  C   UNL     1      22.621 -27.024   2.927  0.00  0.00    +0.019 A 
ATOM     38  C   UNL     1      24.030 -27.292   2.684  0.00  0.00    +0.120 A 
ATOM     39  N   UNL     1      24.665 -26.720   1.586  0.00  0.00    -0.263 NA
ATOM     40  C   UNL     1      23.998 -25.879   0.682  0.00  0.00    +0.111 A 
ENDBRANCH   4   3
ENDBRANCH  10   9
BRANCH  12  13
ATOM     13  N   UNL     1      20.116 -30.960  10.217  0.00  0.00    -0.281 N 
ATOM     14  C   UNL     1      18.783 -30.658  10.442  0.00  0.00    +0.248 C 
ATOM     30  O   UNL     1      17.907 -30.718   9.591  0.00  0.00    -0.270 OA
ATOM     31  H   UNL     1      20.768 -30.683  10.950  0.00  0.00    +0.155 HD
BRANCH  14  15
ATOM     15  C   UNL     1      18.364 -30.210  11.805  0.00  0.00    +0.037 A 
ATOM     16  C   UNL     1      16.981 -30.361  12.263  0.00  0.00    +0.013 A 
ATOM     17  C   UNL     1      16.600 -29.905  13.576  0.00  0.00    +0.005 A 
ATOM     18  C   UNL     1      17.606 -29.293  14.441  0.00  0.00    -0.033 A 
ATOM     28  C   UNL     1      18.972 -29.160  13.963  0.00  0.00    +0.005 A 
ATOM     29  C   UNL     1      19.349 -29.605  12.676  0.00  0.00    +0.013 A 
BRANCH  18  19
ATOM     19  C   UNL     1      17.284 -28.758  15.850  0.00  0.00    +0.119 C 
BRANCH  19  20
ATOM     20  N   UNL     1      17.357 -27.281  16.053  0.00  0.00    -0.302 NA
ATOM     21  C   UNL     1      17.939 -26.917  17.422  0.00  0.00    +0.066 C 
ATOM     22  C   UNL     1      18.030 -25.368  17.609  0.00  0.00    -0.064 C 
ATOM     23  N   UNL     1      16.640 -24.754  17.431  0.00  0.00    +0.379 N 
ATOM     24  C   UNL     1      16.711 -23.304  17.664  0.00  0.00    -0.096 C 
ATOM     25  H   UNL     1      15.975 -25.190  18.213  0.00  0.00    -0.082 HD
ATOM     26  C   UNL     1      16.052 -25.112  16.074  0.00  0.00    -0.064 C 
ATOM     27  C   UNL     1      15.995 -26.654  15.886  0.00  0.00    +0.066 C 
ENDBRANCH  19  20
ENDBRANCH  18  19
ENDBRANCH  14  15
ENDBRANCH  12  13
TORSDOF 6
ENDMDL
MODEL 5
REMARK VINA RESULT:      -8.1      8.725     16.879
REMARK  Name = C:\Users\Docking\Desktop\test protocol\1iep_ligandH.pdb
REMARK  8 active torsions:
REMARK  status: ('A' for Active; 'I' for Inactive)
REMARK    1  A    between atoms: _5  and  _11
REMARK    2  A    between atoms: _19  and  _21
REMARK    3  A    between atoms: _22  and  _66
REMARK    4  A    between atoms: _27  and  _30
REMARK    5  A    between atoms: _32  and  _33
REMARK    6  A    between atoms: _38  and  _43
REMARK    7  A    between atoms: _43  and  _46
REMARK    8  A    between atoms: _53  and  _55
REMARK                            x       y       z     vdW  Elec       q    Type
REMARK                         _______ _______ _______ _____ _____    ______ ____
ROOT
ATOM     10  C   UNL     1       3.196 -15.222  -2.485  0.00  0.00    +0.038 A 
ATOM     11  C   UNL     1       4.254 -15.105  -1.548  0.00  0.00    +0.047 A 
ATOM     12  C   UNL     1       4.922 -16.282  -1.015  0.00  0.00    +0.035 A 
ATOM     32  C   UNL     1       4.487 -17.565  -1.460  0.00  0.00    +0.024 A 
ATOM     33  C   UNL     1       3.412 -17.703  -2.411  0.00  0.00    +0.007 A 
ATOM     34  C   UNL     1       2.748 -16.545  -2.938  0.00  0.00    -0.029 A 
ATOM     35  C   UNL     1       1.598 -16.753  -3.950  0.00  0.00    +0.045 C 
ENDROOT
BRANCH  10   9
ATOM      4  C   UNL     1      -0.003 -11.662  -2.133  0.00  0.00    +0.077 A 
ATOM      5  C   UNL     1      -0.532 -12.179  -0.904  0.00  0.00    +0.048 A 
ATOM      6  C   UNL     1       0.043 -13.367  -0.399  0.00  0.00    +0.116 A 
ATOM      7  N   UNL     1       1.069 -13.984  -1.082  0.00  0.00    -0.223 NA
ATOM      8  C   UNL     1       1.554 -13.459  -2.266  0.00  0.00    +0.220 A 
ATOM      9  N   UNL     1       2.591 -14.059  -2.965  0.00  0.00    -0.283 N 
ATOM     36  H   UNL     1       2.915 -13.645  -3.838  0.00  0.00    +0.155 HD
ATOM     37  N   UNL     1       1.021 -12.327  -2.769  0.00  0.00    -0.214 NA
BRANCH   4   3
ATOM      1  C   UNL     1      -1.413  -8.061  -2.725  0.00  0.00    +0.020 A 
ATOM      2  C   UNL     1      -0.939  -9.242  -2.041  0.00  0.00    +0.013 A 
ATOM      3  C   UNL     1      -0.503 -10.413  -2.791  0.00  0.00    +0.019 A 
ATOM     38  C   UNL     1      -0.559 -10.356  -4.244  0.00  0.00    +0.120 A 
ATOM     39  N   UNL     1      -1.021  -9.205  -4.876  0.00  0.00    -0.263 NA
ATOM     40  C   UNL     1      -1.445  -8.073  -4.164  0.00  0.00    +0.111 A 
ENDBRANCH   4   3
ENDBRANCH  10   9
BRANCH  12  13
ATOM     13  N   UNL     1       5.996 -16.225  -0.056  0.00  0.00    -0.281 N 
ATOM     14  C   UNL     1       7.292 -16.694  -0.199  0.00  0.00    +0.248 C 
ATOM     30  O   UNL     1       7.665 -17.429  -1.101  0.00  0.00    -0.270 OA
ATOM     31  H   UNL     1       5.775 -15.785   0.838  0.00  0.00    +0.155 HD
BRANCH  14  15
ATOM     15  C   UNL     1       8.319 -16.300   0.813  0.00  0.00    +0.037 A 
ATOM     16  C   UNL     1       8.048 -16.404   2.250  0.00  0.00    +0.013 A 
ATOM     17  C   UNL     1       9.050 -16.002   3.205  0.00  0.00    +0.005 A 
ATOM     18  C   UNL     1      10.333 -15.494   2.727  0.00  0.00    -0.033 A 
ATOM     28  C   UNL     1      10.577 -15.406   1.296  0.00  0.00    +0.005 A 
ATOM     29  C   UNL     1       9.597 -15.798   0.357  0.00  0.00    +0.013 A 
BRANCH  18  19
ATOM     19  C   UNL     1      11.452 -15.022   3.674  0.00  0.00    +0.119 C 
BRANCH  19  20
ATOM     20  N   UNL     1      11.313 -13.660   4.271  0.00  0.00    -0.302 NA
ATOM     21  C   UNL     1      10.430 -13.668   5.522  0.00  0.00    +0.066 C 
ATOM     22  C   UNL     1      10.315 -12.240   6.147  0.00  0.00    -0.064 C 
ATOM     23  N   UNL     1       9.761 -11.272   5.099  0.00  0.00    +0.379 N 
ATOM     24  C   UNL     1       9.597  -9.940   5.701  0.00  0.00    -0.096 C 
ATOM     25  H   UNL     1       8.750 -11.636   4.803  0.00  0.00    -0.082 HD
ATOM     26  C   UNL     1      10.632 -11.259   3.851  0.00  0.00    -0.064 C 
ATOM     27  C   UNL     1      10.764 -12.689   3.255  0.00  0.00    +0.066 C 
ENDBRANCH  19  20
ENDBRANCH  18  19
ENDBRANCH  14  15
ENDBRANCH  12  13
TORSDOF 6
ENDMDL
