MODEL 1
REMARK VINA RESULT:      -7.9      0.000      0.000
REMARK  Name = C:\Users\Docking\Desktop\test protocol\1iep_ligandH.pdb
REMARK  8 active torsions:
REMARK  status: ('A' for Active; 'I' for Inactive)
REMARK    1  A    between atoms: _5  and  _11
REMARK    2  A    between atoms: _19  and  _21
REMARK    3  A    between atoms: _22  and  _66
REMARK    4  A    between atoms: _27  and  _30
REMARK    5  A    between atoms: _32  and  _33
REMARK    6  A    between atoms: _38  and  _43
REMARK    7  A    between atoms: _43  and  _46
REMARK    8  A    between atoms: _53  and  _55
REMARK                            x       y       z     vdW  Elec       q    Type
REMARK                         _______ _______ _______ _____ _____    ______ ____
ROOT
ATOM     10  C   UNL     1      68.277  52.406  15.913  0.00  0.00    +0.038 A 
ATOM     11  C   UNL     1      67.861  52.367  17.268  0.00  0.00    +0.047 A 
ATOM     12  C   UNL     1      67.877  53.563  18.096  0.00  0.00    +0.035 A 
ATOM     32  C   UNL     1      68.322  54.784  17.510  0.00  0.00    +0.024 A 
ATOM     33  C   UNL     1      68.750  54.842  16.134  0.00  0.00    +0.007 A 
ATOM     34  C   UNL     1      68.738  53.665  15.314  0.00  0.00    -0.029 A 
ATOM     35  C   UNL     1      69.214  53.784  13.847  0.00  0.00    +0.045 C 
ENDROOT
BRANCH  10   9
ATOM      4  C   UNL     1      66.268  49.537  12.632  0.00  0.00    +0.077 A 
ATOM      5  C   UNL     1      65.185  50.452  12.409  0.00  0.00    +0.048 A 
ATOM      6  C   UNL     1      65.178  51.646  13.165  0.00  0.00    +0.116 A 
ATOM      7  N   UNL     1      66.185  51.896  14.072  0.00  0.00    -0.223 NA
ATOM      8  C   UNL     1      67.214  50.993  14.263  0.00  0.00    +0.220 A 
ATOM      9  N   UNL     1      68.241  51.228  15.165  0.00  0.00    -0.283 N 
ATOM     36  H   UNL     1      68.977  50.533  15.282  0.00  0.00    +0.155 HD
ATOM     37  N   UNL     1      67.242  49.844  13.555  0.00  0.00    -0.214 NA
BRANCH   4   3
ATOM      1  C   UNL     1      66.726  46.863   9.814  0.00  0.00    +0.020 A 
ATOM      2  C   UNL     1      66.586  48.146  10.463  0.00  0.00    +0.013 A 
ATOM      3  C   UNL     1      66.416  48.235  11.908  0.00  0.00    +0.019 A 
ATOM     38  C   UNL     1      66.392  46.997  12.673  0.00  0.00    +0.120 A 
ATOM     39  N   UNL     1      66.527  45.776  12.019  0.00  0.00    -0.263 NA
ATOM     40  C   UNL     1      66.690  45.678  10.629  0.00  0.00    +0.111 A 
ENDBRANCH   4   3
ENDBRANCH  10   9
BRANCH  12  13
ATOM     13  N   UNL     1      67.474  53.582  19.480  0.00  0.00    -0.281 N 
ATOM     14  C   UNL     1      68.144  53.052  20.570  0.00  0.00    +0.248 C 
ATOM     30  O   UNL     1      69.096  52.290  20.492  0.00  0.00    -0.270 OA
ATOM     31  H   UNL     1      66.586  54.043  19.680  0.00  0.00    +0.155 HD
BRANCH  14  15
ATOM     15  C   UNL     1      67.682  53.410  21.946  0.00  0.00    +0.037 A 
ATOM     16  C   UNL     1      68.491  53.092  23.126  0.00  0.00    +0.013 A 
ATOM     17  C   UNL     1      68.013  53.433  24.442  0.00  0.00    +0.005 A 
ATOM     18  C   UNL     1      66.720  54.097  24.586  0.00  0.00    -0.033 A 
ATOM     28  C   UNL     1      65.941  54.406  23.398  0.00  0.00    +0.005 A 
ATOM     29  C   UNL     1      66.405  54.073  22.106  0.00  0.00    +0.013 A 
BRANCH  18  19
ATOM     19  C   UNL     1      66.123  54.479  25.953  0.00  0.00    +0.119 C 
BRANCH  19  20
ATOM     20  N   UNL     1      64.782  53.917  26.294  0.00  0.00    -0.302 NA
ATOM     21  C   UNL     1      64.081  54.728  27.388  0.00  0.00    +0.066 C 
ATOM     22  C   UNL     1      62.670  54.140  27.717  0.00  0.00    -0.064 C 
ATOM     23  N   UNL     1      62.816  52.676  28.137  0.00  0.00    +0.379 N 
ATOM     24  C   UNL     1      61.498  52.137  28.502  0.00  0.00    -0.096 C 
ATOM     25  H   UNL     1      63.457  52.648  29.048  0.00  0.00    -0.082 HD
ATOM     26  C   UNL     1      63.514  51.863  27.056  0.00  0.00    -0.064 C 
ATOM     27  C   UNL     1      64.903  52.473  26.716  0.00  0.00    +0.066 C 
ENDBRANCH  19  20
ENDBRANCH  18  19
ENDBRANCH  14  15
ENDBRANCH  12  13
TORSDOF 6
ENDMDL
MODEL 2
REMARK VINA RESULT:      -7.9      5.791     10.566
REMARK  Name = C:\Users\Docking\Desktop\test protocol\1iep_ligandH.pdb
REMARK  8 active torsions:
REMARK  status: ('A' for Active; 'I' for Inactive)
REMARK    1  A    between atoms: _5  and  _11
REMARK    2  A    between atoms: _19  and  _21
REMARK    3  A    between atoms: _22  and  _66
REMARK    4  A    between atoms: _27  and  _30
REMARK    5  A    between atoms: _32  and  _33
REMARK    6  A    between atoms: _38  and  _43
REMARK    7  A    between atoms: _43  and  _46
REMARK    8  A    between atoms: _53  and  _55
REMARK                            x       y       z     vdW  Elec       q    Type
REMARK                         _______ _______ _______ _____ _____    ______ ____
ROOT
ATOM     10  C   UNL     1      68.177  53.128  17.573  0.00  0.00    +0.038 A 
ATOM     11  C   UNL     1      68.636  54.387  17.108  0.00  0.00    +0.047 A 
ATOM     12  C   UNL     1      68.731  55.530  18.003  0.00  0.00    +0.035 A 
ATOM     32  C   UNL     1      68.351  55.355  19.365  0.00  0.00    +0.024 A 
ATOM     33  C   UNL     1      67.880  54.083  19.854  0.00  0.00    +0.007 A 
ATOM     34  C   UNL     1      67.783  52.952  18.976  0.00  0.00    -0.029 A 
ATOM     35  C   UNL     1      67.266  51.614  19.553  0.00  0.00    +0.045 C 
ENDROOT
BRANCH  10   9
ATOM      4  C   UNL     1      66.810  51.207  13.392  0.00  0.00    +0.077 A 
ATOM      5  C   UNL     1      66.157  52.417  12.982  0.00  0.00    +0.048 A 
ATOM      6  C   UNL     1      66.191  53.509  13.879  0.00  0.00    +0.116 A 
ATOM      7  N   UNL     1      66.831  53.388  15.093  0.00  0.00    -0.223 NA
ATOM      8  C   UNL     1      67.449  52.206  15.458  0.00  0.00    +0.220 A 
ATOM      9  N   UNL     1      68.107  52.064  16.671  0.00  0.00    -0.283 N 
ATOM     36  H   UNL     1      68.544  51.174  16.906  0.00  0.00    +0.155 HD
ATOM     37  N   UNL     1      67.431  51.149  14.620  0.00  0.00    -0.214 NA
BRANCH   4   3
ATOM      1  C   UNL     1      65.778  48.068  11.299  0.00  0.00    +0.020 A 
ATOM      2  C   UNL     1      65.671  49.260  12.109  0.00  0.00    +0.013 A 
ATOM      3  C   UNL     1      66.864  49.969  12.553  0.00  0.00    +0.019 A 
ATOM     38  C   UNL     1      68.161  49.442  12.157  0.00  0.00    +0.120 A 
ATOM     39  N   UNL     1      68.234  48.291  11.378  0.00  0.00    -0.263 NA
ATOM     40  C   UNL     1      67.093  47.599  10.946  0.00  0.00    +0.111 A 
ENDBRANCH   4   3
ENDBRANCH  10   9
BRANCH  12  13
ATOM     13  N   UNL     1      69.182  56.835  17.586  0.00  0.00    -0.281 N 
ATOM     14  C   UNL     1      70.451  57.204  17.170  0.00  0.00    +0.248 C 
ATOM     30  O   UNL     1      71.449  56.510  17.296  0.00  0.00    -0.270 OA
ATOM     31  H   UNL     1      68.482  57.576  17.601  0.00  0.00    +0.155 HD
BRANCH  14  15
ATOM     15  C   UNL     1      70.641  58.543  16.534  0.00  0.00    +0.037 A 
ATOM     16  C   UNL     1      71.742  58.791  15.600  0.00  0.00    +0.013 A 
ATOM     17  C   UNL     1      71.912  60.097  15.013  0.00  0.00    +0.005 A 
ATOM     18  C   UNL     1      70.977  61.165  15.359  0.00  0.00    -0.033 A 
ATOM     28  C   UNL     1      69.891  60.890  16.285  0.00  0.00    +0.005 A 
ATOM     29  C   UNL     1      69.721  59.612  16.862  0.00  0.00    +0.013 A 
BRANCH  18  19
ATOM     19  C   UNL     1      71.095  62.594  14.798  0.00  0.00    +0.119 C 
BRANCH  19  20
ATOM     20  N   UNL     1      71.627  62.742  13.410  0.00  0.00    -0.302 NA
ATOM     21  C   UNL     1      72.572  63.940  13.282  0.00  0.00    +0.066 C 
ATOM     22  C   UNL     1      73.137  64.067  11.829  0.00  0.00    -0.064 C 
ATOM     23  N   UNL     1      71.975  64.186  10.842  0.00  0.00    +0.379 N 
ATOM     24  C   UNL     1      72.503  64.363   9.481  0.00  0.00    -0.096 C 
ATOM     25  H   UNL     1      71.401  65.105  11.105  0.00  0.00    -0.082 HD
ATOM     26  C   UNL     1      71.028  63.000  10.965  0.00  0.00    -0.064 C 
ATOM     27  C   UNL     1      70.496  62.866  12.419  0.00  0.00    +0.066 C 
ENDBRANCH  19  20
ENDBRANCH  18  19
ENDBRANCH  14  15
ENDBRANCH  12  13
TORSDOF 6
ENDMDL
MODEL 3
REMARK VINA RESULT:      -7.8     13.209     19.461
REMARK  Name = C:\Users\Docking\Desktop\test protocol\1iep_ligandH.pdb
REMARK  8 active torsions:
REMARK  status: ('A' for Active; 'I' for Inactive)
REMARK    1  A    between atoms: _5  and  _11
REMARK    2  A    between atoms: _19  and  _21
REMARK    3  A    between atoms: _22  and  _66
REMARK    4  A    between atoms: _27  and  _30
REMARK    5  A    between atoms: _32  and  _33
REMARK    6  A    between atoms: _38  and  _43
REMARK    7  A    between atoms: _43  and  _46
REMARK    8  A    between atoms: _53  and  _55
REMARK                            x       y       z     vdW  Elec       q    Type
REMARK                         _______ _______ _______ _____ _____    ______ ____
ROOT
ATOM     10  C   UNL     1      72.341  62.394  12.602  0.00  0.00    +0.038 A 
ATOM     11  C   UNL     1      71.631  63.157  11.640  0.00  0.00    +0.047 A 
ATOM     12  C   UNL     1      72.326  64.047  10.723  0.00  0.00    +0.035 A 
ATOM     32  C   UNL     1      73.746  64.133  10.812  0.00  0.00    +0.024 A 
ATOM     33  C   UNL     1      74.484  63.366  11.784  0.00  0.00    +0.007 A 
ATOM     34  C   UNL     1      73.803  62.488  12.693  0.00  0.00    -0.029 A 
ATOM     35  C   UNL     1      74.644  61.695  13.719  0.00  0.00    +0.045 C 
ENDROOT
BRANCH  10   9
ATOM      4  C   UNL     1      70.310  61.404  16.836  0.00  0.00    +0.077 A 
ATOM      5  C   UNL     1      70.739  62.651  17.400  0.00  0.00    +0.048 A 
ATOM      6  C   UNL     1      71.486  63.516  16.570  0.00  0.00    +0.116 A 
ATOM      7  N   UNL     1      71.776  63.151  15.273  0.00  0.00    -0.223 NA
ATOM      8  C   UNL     1      71.349  61.940  14.761  0.00  0.00    +0.220 A 
ATOM      9  N   UNL     1      71.623  61.556  13.457  0.00  0.00    -0.283 N 
ATOM     36  H   UNL     1      71.296  60.651  13.119  0.00  0.00    +0.155 HD
ATOM     37  N   UNL     1      70.635  61.096  15.534  0.00  0.00    -0.214 NA
BRANCH   4   3
ATOM      1  C   UNL     1      67.697  59.719  19.210  0.00  0.00    +0.020 A 
ATOM      2  C   UNL     1      68.439  60.742  18.510  0.00  0.00    +0.013 A 
ATOM      3  C   UNL     1      69.510  60.385  17.587  0.00  0.00    +0.019 A 
ATOM     38  C   UNL     1      69.805  58.974  17.392  0.00  0.00    +0.120 A 
ATOM     39  N   UNL     1      69.074  58.011  18.081  0.00  0.00    -0.263 NA
ATOM     40  C   UNL     1      68.043  58.342  18.973  0.00  0.00    +0.111 A 
ENDBRANCH   4   3
ENDBRANCH  10   9
BRANCH  12  13
ATOM     13  N   UNL     1      71.658  64.852   9.731  0.00  0.00    -0.281 N 
ATOM     14  C   UNL     1      71.639  64.670   8.358  0.00  0.00    +0.248 C 
ATOM     30  O   UNL     1      72.375  63.905   7.752  0.00  0.00    -0.270 OA
ATOM     31  H   UNL     1      71.135  65.653  10.084  0.00  0.00    +0.155 HD
BRANCH  14  15
ATOM     15  C   UNL     1      70.674  65.462   7.537  0.00  0.00    +0.037 A 
ATOM     16  C   UNL     1      69.325  65.758   8.026  0.00  0.00    +0.013 A 
ATOM     17  C   UNL     1      68.407  66.510   7.207  0.00  0.00    +0.005 A 
ATOM     18  C   UNL     1      68.837  66.973   5.890  0.00  0.00    -0.033 A 
ATOM     28  C   UNL     1      70.183  66.670   5.431  0.00  0.00    +0.005 A 
ATOM     29  C   UNL     1      71.085  65.932   6.231  0.00  0.00    +0.013 A 
BRANCH  18  19
ATOM     19  C   UNL     1      67.918  67.763   4.940  0.00  0.00    +0.119 C 
BRANCH  19  20
ATOM     20  N   UNL     1      68.412  68.001   3.551  0.00  0.00    -0.302 NA
ATOM     21  C   UNL     1      69.315  69.235   3.465  0.00  0.00    +0.066 C 
ATOM     22  C   UNL     1      69.841  69.455   2.009  0.00  0.00    -0.064 C 
ATOM     23  N   UNL     1      68.652  69.587   1.055  0.00  0.00    +0.379 N 
ATOM     24  C   UNL     1      69.143  69.852  -0.305  0.00  0.00    -0.096 C 
ATOM     25  H   UNL     1      68.056  70.471   1.378  0.00  0.00    -0.082 HD
ATOM     26  C   UNL     1      67.748  68.365   1.136  0.00  0.00    -0.064 C 
ATOM     27  C   UNL     1      67.255  68.138   2.592  0.00  0.00    +0.066 C 
ENDBRANCH  19  20
ENDBRANCH  18  19
ENDBRANCH  14  15
ENDBRANCH  12  13
TORSDOF 6
ENDMDL
MODEL 4
REMARK VINA RESULT:      -7.8     22.364     25.742
REMARK  Name = C:\Users\Docking\Desktop\test protocol\1iep_ligandH.pdb
REMARK  8 active torsions:
REMARK  status: ('A' for Active; 'I' for Inactive)
REMARK    1  A    between atoms: _5  and  _11
REMARK    2  A    between atoms: _19  and  _21
REMARK    3  A    between atoms: _22  and  _66
REMARK    4  A    between atoms: _27  and  _30
REMARK    5  A    between atoms: _32  and  _33
REMARK    6  A    between atoms: _38  and  _43
REMARK    7  A    between atoms: _43  and  _46
REMARK    8  A    between atoms: _53  and  _55
REMARK                            x       y       z     vdW  Elec       q    Type
REMARK                         _______ _______ _______ _____ _____    ______ ____
ROOT
ATOM     10  C   UNL     1      76.026  70.576   5.249  0.00  0.00    +0.038 A 
ATOM     11  C   UNL     1      74.668  70.207   5.073  0.00  0.00    +0.047 A 
ATOM     12  C   UNL     1      73.928  70.603   3.885  0.00  0.00    +0.035 A 
ATOM     32  C   UNL     1      74.603  71.373   2.894  0.00  0.00    +0.024 A 
ATOM     33  C   UNL     1      75.983  71.757   3.056  0.00  0.00    +0.007 A 
ATOM     34  C   UNL     1      76.718  71.372   4.227  0.00  0.00    -0.029 A 
ATOM     35  C   UNL     1      78.193  71.818   4.351  0.00  0.00    +0.045 C 
ENDROOT
BRANCH  10   9
ATOM      4  C   UNL     1      77.497  71.302   9.759  0.00  0.00    +0.077 A 
ATOM      5  C   UNL     1      76.920  72.615   9.799  0.00  0.00    +0.048 A 
ATOM      6  C   UNL     1      76.259  73.069   8.635  0.00  0.00    +0.116 A 
ATOM      7  N   UNL     1      76.187  72.261   7.521  0.00  0.00    -0.223 NA
ATOM      8  C   UNL     1      76.756  71.001   7.515  0.00  0.00    +0.220 A 
ATOM      9  N   UNL     1      76.689  70.169   6.409  0.00  0.00    -0.283 N 
ATOM     36  H   UNL     1      77.128  69.249   6.442  0.00  0.00    +0.155 HD
ATOM     37  N   UNL     1      77.394  70.545   8.614  0.00  0.00    -0.214 NA
BRANCH   4   3
ATOM      1  C   UNL     1      79.202  68.702  12.132  0.00  0.00    +0.020 A 
ATOM      2  C   UNL     1      78.495  69.251  10.998  0.00  0.00    +0.013 A 
ATOM      3  C   UNL     1      78.224  70.681  10.911  0.00  0.00    +0.019 A 
ATOM     38  C   UNL     1      78.687  71.534  11.995  0.00  0.00    +0.120 A 
ATOM     39  N   UNL     1      79.365  70.976  13.075  0.00  0.00    -0.263 NA
ATOM     40  C   UNL     1      79.629  69.602  13.171  0.00  0.00    +0.111 A 
ENDBRANCH   4   3
ENDBRANCH  10   9
BRANCH  12  13
ATOM     13  N   UNL     1      72.545  70.265   3.657  0.00  0.00    -0.281 N 
ATOM     14  C   UNL     1      72.016  69.032   3.312  0.00  0.00    +0.248 C 
ATOM     30  O   UNL     1      72.678  68.076   2.937  0.00  0.00    -0.270 OA
ATOM     31  H   UNL     1      71.875  71.026   3.762  0.00  0.00    +0.155 HD
BRANCH  14  15
ATOM     15  C   UNL     1      70.535  68.837   3.379  0.00  0.00    +0.037 A 
ATOM     16  C   UNL     1      69.926  67.992   4.409  0.00  0.00    +0.013 A 
ATOM     17  C   UNL     1      68.497  67.808   4.441  0.00  0.00    +0.005 A 
ATOM     18  C   UNL     1      67.666  68.471   3.439  0.00  0.00    -0.033 A 
ATOM     28  C   UNL     1      68.296  69.308   2.432  0.00  0.00    +0.005 A 
ATOM     29  C   UNL     1      69.697  69.491   2.396  0.00  0.00    +0.013 A 
BRANCH  18  19
ATOM     19  C   UNL     1      66.135  68.314   3.385  0.00  0.00    +0.119 C 
BRANCH  19  20
ATOM     20  N   UNL     1      65.474  68.512   2.060  0.00  0.00    -0.302 NA
ATOM     21  C   UNL     1      63.956  68.331   2.143  0.00  0.00    +0.066 C 
ATOM     22  C   UNL     1      63.278  68.563   0.753  0.00  0.00    -0.064 C 
ATOM     23  N   UNL     1      63.883  67.604  -0.273  0.00  0.00    +0.379 N 
ATOM     24  C   UNL     1      63.208  67.780  -1.567  0.00  0.00    -0.096 C 
ATOM     25  H   UNL     1      63.681  66.565   0.076  0.00  0.00    -0.082 HD
ATOM     26  C   UNL     1      65.393  67.776  -0.360  0.00  0.00    -0.064 C 
ATOM     27  C   UNL     1      66.054  67.571   1.032  0.00  0.00    +0.066 C 
ENDBRANCH  19  20
ENDBRANCH  18  19
ENDBRANCH  14  15
ENDBRANCH  12  13
TORSDOF 6
ENDMDL
MODEL 5
REMARK VINA RESULT:      -7.8      5.730     10.281
REMARK  Name = C:\Users\Docking\Desktop\test protocol\1iep_ligandH.pdb
REMARK  8 active torsions:
REMARK  status: ('A' for Active; 'I' for Inactive)
REMARK    1  A    between atoms: _5  and  _11
REMARK    2  A    between atoms: _19  and  _21
REMARK    3  A    between atoms: _22  and  _66
REMARK    4  A    between atoms: _27  and  _30
REMARK    5  A    between atoms: _32  and  _33
REMARK    6  A    between atoms: _38  and  _43
REMARK    7  A    between atoms: _43  and  _46
REMARK    8  A    between atoms: _53  and  _55
REMARK                            x       y       z     vdW  Elec       q    Type
REMARK                         _______ _______ _______ _____ _____    ______ ____
ROOT
ATOM     10  C   UNL     1      68.299  53.256  18.149  0.00  0.00    +0.038 A 
ATOM     11  C   UNL     1      68.735  54.553  17.775  0.00  0.00    +0.047 A 
ATOM     12  C   UNL     1      68.864  55.616  18.759  0.00  0.00    +0.035 A 
ATOM     32  C   UNL     1      68.543  55.322  20.117  0.00  0.00    +0.024 A 
ATOM     33  C   UNL     1      68.098  54.010  20.514  0.00  0.00    +0.007 A 
ATOM     34  C   UNL     1      67.966  52.958  19.547  0.00  0.00    -0.029 A 
ATOM     35  C   UNL     1      67.477  51.572  20.028  0.00  0.00    +0.045 C 
ENDROOT
BRANCH  10   9
ATOM      4  C   UNL     1      66.917  51.749  13.806  0.00  0.00    +0.077 A 
ATOM      5  C   UNL     1      66.333  53.020  13.486  0.00  0.00    +0.048 A 
ATOM      6  C   UNL     1      66.404  54.033  14.469  0.00  0.00    +0.116 A 
ATOM      7  N   UNL     1      67.015  53.782  15.678  0.00  0.00    -0.223 NA
ATOM      8  C   UNL     1      67.566  52.545  15.956  0.00  0.00    +0.220 A 
ATOM      9  N   UNL     1      68.193  52.273  17.162  0.00  0.00    -0.283 N 
ATOM     36  H   UNL     1      68.580  51.345  17.331  0.00  0.00    +0.155 HD
ATOM     37  N   UNL     1      67.511  51.561  15.034  0.00  0.00    -0.214 NA
BRANCH   4   3
ATOM      1  C   UNL     1      65.770  48.851  11.443  0.00  0.00    +0.020 A 
ATOM      2  C   UNL     1      65.707  49.978  12.344  0.00  0.00    +0.013 A 
ATOM      3  C   UNL     1      66.925  50.581  12.870  0.00  0.00    +0.019 A 
ATOM     38  C   UNL     1      68.202  50.015  12.461  0.00  0.00    +0.120 A 
ATOM     39  N   UNL     1      68.232  48.928  11.593  0.00  0.00    -0.263 NA
ATOM     40  C   UNL     1      67.066  48.338  11.081  0.00  0.00    +0.111 A 
ENDBRANCH   4   3
ENDBRANCH  10   9
BRANCH  12  13
ATOM     13  N   UNL     1      69.294  56.954  18.438  0.00  0.00    -0.281 N 
ATOM     14  C   UNL     1      70.496  57.350  17.874  0.00  0.00    +0.248 C 
ATOM     30  O   UNL     1      71.476  56.628  17.757  0.00  0.00    -0.270 OA
ATOM     31  H   UNL     1      68.633  57.700  18.652  0.00  0.00    +0.155 HD
BRANCH  14  15
ATOM     15  C   UNL     1      70.636  58.755  17.383  0.00  0.00    +0.037 A 
ATOM     16  C   UNL     1      70.188  59.891  18.192  0.00  0.00    +0.013 A 
ATOM     17  C   UNL     1      70.318  61.235  17.687  0.00  0.00    +0.005 A 
ATOM     18  C   UNL     1      70.901  61.449  16.365  0.00  0.00    -0.033 A 
ATOM     28  C   UNL     1      71.342  60.304  15.585  0.00  0.00    +0.005 A 
ATOM     29  C   UNL     1      71.215  58.986  16.076  0.00  0.00    +0.013 A 
BRANCH  18  19
ATOM     19  C   UNL     1      71.059  62.847  15.737  0.00  0.00    +0.119 C 
BRANCH  19  20
ATOM     20  N   UNL     1      71.411  62.910  14.287  0.00  0.00    -0.302 NA
ATOM     21  C   UNL     1      72.401  64.039  13.985  0.00  0.00    +0.066 C 
ATOM     22  C   UNL     1      72.776  64.076  12.468  0.00  0.00    -0.064 C 
ATOM     23  N   UNL     1      71.504  64.234  11.635  0.00  0.00    +0.379 N 
ATOM     24  C   UNL     1      71.858  64.327  10.211  0.00  0.00    -0.096 C 
ATOM     25  H   UNL     1      71.025  65.197  11.928  0.00  0.00    -0.082 HD
ATOM     26  C   UNL     1      70.513  63.117  11.931  0.00  0.00    -0.064 C 
ATOM     27  C   UNL     1      70.169  63.070  13.446  0.00  0.00    +0.066 C 
ENDBRANCH  19  20
ENDBRANCH  18  19
ENDBRANCH  14  15
ENDBRANCH  12  13
TORSDOF 6
ENDMDL
