MODEL 1
REMARK VINA RESULT:      -7.8      0.000      0.000
REMARK  Name = C:\Users\Docking\Desktop\test protocol\1iep_ligandH.pdb
REMARK  8 active torsions:
REMARK  status: ('A' for Active; 'I' for Inactive)
REMARK    1  A    between atoms: _5  and  _11
REMARK    2  A    between atoms: _19  and  _21
REMARK    3  A    between atoms: _22  and  _66
REMARK    4  A    between atoms: _27  and  _30
REMARK    5  A    between atoms: _32  and  _33
REMARK    6  A    between atoms: _38  and  _43
REMARK    7  A    between atoms: _43  and  _46
REMARK    8  A    between atoms: _53  and  _55
REMARK                            x       y       z     vdW  Elec       q    Type
REMARK                         _______ _______ _______ _____ _____    ______ ____
ROOT
ATOM     10  C   UNL     1      71.327  56.227  14.351  0.00  0.00    +0.038 A 
ATOM     11  C   UNL     1      71.140  57.612  14.111  0.00  0.00    +0.047 A 
ATOM     12  C   UNL     1      71.950  58.610  14.792  0.00  0.00    +0.035 A 
ATOM     32  C   UNL     1      72.944  58.162  15.710  0.00  0.00    +0.024 A 
ATOM     33  C   UNL     1      73.147  56.758  15.966  0.00  0.00    +0.007 A 
ATOM     34  C   UNL     1      72.350  55.769  15.299  0.00  0.00    -0.029 A 
ATOM     35  C   UNL     1      72.607  54.277  15.618  0.00  0.00    +0.045 C 
ENDROOT
BRANCH  10   9
ATOM      4  C   UNL     1      67.336  53.595  13.928  0.00  0.00    +0.077 A 
ATOM      5  C   UNL     1      66.825  54.061  15.185  0.00  0.00    +0.048 A 
ATOM      6  C   UNL     1      67.623  54.971  15.913  0.00  0.00    +0.116 A 
ATOM      7  N   UNL     1      68.840  55.379  15.411  0.00  0.00    -0.223 NA
ATOM      8  C   UNL     1      69.304  54.909  14.196  0.00  0.00    +0.220 A 
ATOM      9  N   UNL     1      70.522  55.312  13.669  0.00  0.00    -0.283 N 
ATOM     36  H   UNL     1      70.832  54.937  12.773  0.00  0.00    +0.155 HD
ATOM     37  N   UNL     1      68.562  54.038  13.483  0.00  0.00    -0.214 NA
BRANCH   4   3
ATOM      1  C   UNL     1      64.885  50.837  12.630  0.00  0.00    +0.020 A 
ATOM      2  C   UNL     1      65.557  51.747  13.528  0.00  0.00    +0.013 A 
ATOM      3  C   UNL     1      66.608  52.632  13.042  0.00  0.00    +0.019 A 
ATOM     38  C   UNL     1      66.957  52.571  11.631  0.00  0.00    +0.120 A 
ATOM     39  N   UNL     1      66.294  51.683  10.790  0.00  0.00    -0.263 NA
ATOM     40  C   UNL     1      65.282  50.826  11.247  0.00  0.00    +0.111 A 
ENDBRANCH   4   3
ENDBRANCH  10   9
BRANCH  12  13
ATOM     13  N   UNL     1      71.799  60.031  14.595  0.00  0.00    -0.281 N 
ATOM     14  C   UNL     1      70.917  60.890  15.230  0.00  0.00    +0.248 C 
ATOM     30  O   UNL     1      69.971  60.528  15.913  0.00  0.00    -0.270 OA
ATOM     31  H   UNL     1      72.418  60.454  13.904  0.00  0.00    +0.155 HD
BRANCH  14  15
ATOM     15  C   UNL     1      71.103  62.364  15.070  0.00  0.00    +0.037 A 
ATOM     16  C   UNL     1      70.967  63.010  13.762  0.00  0.00    +0.013 A 
ATOM     17  C   UNL     1      71.169  64.431  13.632  0.00  0.00    +0.005 A 
ATOM     18  C   UNL     1      71.509  65.217  14.816  0.00  0.00    -0.033 A 
ATOM     28  C   UNL     1      71.633  64.552  16.102  0.00  0.00    +0.005 A 
ATOM     29  C   UNL     1      71.436  63.158  16.233  0.00  0.00    +0.013 A 
BRANCH  18  19
ATOM     19  C   UNL     1      71.763  66.735  14.768  0.00  0.00    +0.119 C 
BRANCH  19  20
ATOM     20  N   UNL     1      73.141  67.209  15.096  0.00  0.00    -0.302 NA
ATOM     21  C   UNL     1      73.123  68.473  15.959  0.00  0.00    +0.066 C 
ATOM     22  C   UNL     1      74.572  68.942  16.312  0.00  0.00    -0.064 C 
ATOM     23  N   UNL     1      75.357  69.179  15.020  0.00  0.00    +0.379 N 
ATOM     24  C   UNL     1      76.702  69.675  15.347  0.00  0.00    -0.096 C 
ATOM     25  H   UNL     1      74.832  69.978  14.447  0.00  0.00    -0.082 HD
ATOM     26  C   UNL     1      75.377  67.927  14.154  0.00  0.00    -0.064 C 
ATOM     27  C   UNL     1      73.932  67.453  13.834  0.00  0.00    +0.066 C 
ENDBRANCH  19  20
ENDBRANCH  18  19
ENDBRANCH  14  15
ENDBRANCH  12  13
TORSDOF 6
ENDMDL
MODEL 2
REMARK VINA RESULT:      -7.6     15.177     18.148
REMARK  Name = C:\Users\Docking\Desktop\test protocol\1iep_ligandH.pdb
REMARK  8 active torsions:
REMARK  status: ('A' for Active; 'I' for Inactive)
REMARK    1  A    between atoms: _5  and  _11
REMARK    2  A    between atoms: _19  and  _21
REMARK    3  A    between atoms: _22  and  _66
REMARK    4  A    between atoms: _27  and  _30
REMARK    5  A    between atoms: _32  and  _33
REMARK    6  A    between atoms: _38  and  _43
REMARK    7  A    between atoms: _43  and  _46
REMARK    8  A    between atoms: _53  and  _55
REMARK                            x       y       z     vdW  Elec       q    Type
REMARK                         _______ _______ _______ _____ _____    ______ ____
ROOT
ATOM     10  C   UNL     1      63.879  68.665   1.455  0.00  0.00    +0.038 A 
ATOM     11  C   UNL     1      65.263  68.768   1.746  0.00  0.00    +0.047 A 
ATOM     12  C   UNL     1      65.727  69.230   3.045  0.00  0.00    +0.035 A 
ATOM     32  C   UNL     1      64.752  69.577   4.026  0.00  0.00    +0.024 A 
ATOM     33  C   UNL     1      63.341  69.479   3.746  0.00  0.00    +0.007 A 
ATOM     34  C   UNL     1      62.878  69.026   2.466  0.00  0.00    -0.029 A 
ATOM     35  C   UNL     1      61.353  68.947   2.220  0.00  0.00    +0.045 C 
ENDROOT
BRANCH  10   9
ATOM      4  C   UNL     1      62.638  69.440  -3.117  0.00  0.00    +0.077 A 
ATOM      5  C   UNL     1      62.749  70.863  -2.967  0.00  0.00    +0.048 A 
ATOM      6  C   UNL     1      63.120  71.355  -1.696  0.00  0.00    +0.116 A 
ATOM      7  N   UNL     1      63.361  70.480  -0.659  0.00  0.00    -0.223 NA
ATOM      8  C   UNL     1      63.244  69.114  -0.836  0.00  0.00    +0.220 A 
ATOM      9  N   UNL     1      63.490  68.216   0.191  0.00  0.00    -0.283 N 
ATOM     36  H   UNL     1      63.386  67.216   0.022  0.00  0.00    +0.155 HD
ATOM     37  N   UNL     1      62.890  68.619  -2.040  0.00  0.00    -0.214 NA
BRANCH   4   3
ATOM      1  C   UNL     1      61.489  68.806  -6.802  0.00  0.00    +0.020 A 
ATOM      2  C   UNL     1      61.846  69.504  -5.588  0.00  0.00    +0.013 A 
ATOM      3  C   UNL     1      62.258  68.768  -4.399  0.00  0.00    +0.019 A 
ATOM     38  C   UNL     1      62.301  67.315  -4.473  0.00  0.00    +0.120 A 
ATOM     39  N   UNL     1      61.951  66.670  -5.655  0.00  0.00    -0.263 NA
ATOM     40  C   UNL     1      61.550  67.368  -6.805  0.00  0.00    +0.111 A 
ENDBRANCH   4   3
ENDBRANCH  10   9
BRANCH  12  13
ATOM     13  N   UNL     1      67.119  69.363   3.395  0.00  0.00    -0.281 N 
ATOM     14  C   UNL     1      67.761  68.893   4.529  0.00  0.00    +0.248 C 
ATOM     30  O   UNL     1      67.187  68.471   5.522  0.00  0.00    -0.270 OA
ATOM     31  H   UNL     1      67.703  69.864   2.725  0.00  0.00    +0.155 HD
BRANCH  14  15
ATOM     15  C   UNL     1      69.255  68.909   4.573  0.00  0.00    +0.037 A 
ATOM     16  C   UNL     1      70.041  69.472   3.473  0.00  0.00    +0.013 A 
ATOM     17  C   UNL     1      71.481  69.459   3.533  0.00  0.00    +0.005 A 
ATOM     18  C   UNL     1      72.144  68.881   4.699  0.00  0.00    -0.033 A 
ATOM     28  C   UNL     1      71.340  68.334   5.779  0.00  0.00    +0.005 A 
ATOM     29  C   UNL     1      69.928  68.344   5.723  0.00  0.00    +0.013 A 
BRANCH  18  19
ATOM     19  C   UNL     1      73.676  68.806   4.838  0.00  0.00    +0.119 C 
BRANCH  19  20
ATOM     20  N   UNL     1      74.426  70.097   4.860  0.00  0.00    -0.302 NA
ATOM     21  C   UNL     1      75.918  69.892   5.137  0.00  0.00    +0.066 C 
ATOM     22  C   UNL     1      76.690  71.251   5.134  0.00  0.00    -0.064 C 
ATOM     23  N   UNL     1      76.071  72.188   6.172  0.00  0.00    +0.379 N 
ATOM     24  C   UNL     1      76.831  73.446   6.213  0.00  0.00    -0.096 C 
ATOM     25  H   UNL     1      76.170  71.700   7.170  0.00  0.00    -0.082 HD
ATOM     26  C   UNL     1      74.587  72.396   5.906  0.00  0.00    -0.064 C 
ATOM     27  C   UNL     1      73.834  71.037   5.882  0.00  0.00    +0.066 C 
ENDBRANCH  19  20
ENDBRANCH  18  19
ENDBRANCH  14  15
ENDBRANCH  12  13
TORSDOF 6
ENDMDL
MODEL 3
REMARK VINA RESULT:      -7.5      8.985     14.155
REMARK  Name = C:\Users\Docking\Desktop\test protocol\1iep_ligandH.pdb
REMARK  8 active torsions:
REMARK  status: ('A' for Active; 'I' for Inactive)
REMARK    1  A    between atoms: _5  and  _11
REMARK    2  A    between atoms: _19  and  _21
REMARK    3  A    between atoms: _22  and  _66
REMARK    4  A    between atoms: _27  and  _30
REMARK    5  A    between atoms: _32  and  _33
REMARK    6  A    between atoms: _38  and  _43
REMARK    7  A    between atoms: _43  and  _46
REMARK    8  A    between atoms: _53  and  _55
REMARK                            x       y       z     vdW  Elec       q    Type
REMARK                         _______ _______ _______ _____ _____    ______ ____
ROOT
ATOM     10  C   UNL     1      67.237  54.792  22.820  0.00  0.00    +0.038 A 
ATOM     11  C   UNL     1      66.976  54.201  21.558  0.00  0.00    +0.047 A 
ATOM     12  C   UNL     1      67.639  54.675  20.353  0.00  0.00    +0.035 A 
ATOM     32  C   UNL     1      68.564  55.753  20.471  0.00  0.00    +0.024 A 
ATOM     33  C   UNL     1      68.840  56.367  21.746  0.00  0.00    +0.007 A 
ATOM     34  C   UNL     1      68.187  55.905  22.937  0.00  0.00    -0.029 A 
ATOM     35  C   UNL     1      68.516  56.605  24.277  0.00  0.00    +0.045 C 
ENDROOT
BRANCH  10   9
ATOM      4  C   UNL     1      66.673  51.556  26.319  0.00  0.00    +0.077 A 
ATOM      5  C   UNL     1      67.780  50.771  25.853  0.00  0.00    +0.048 A 
ATOM      6  C   UNL     1      68.463  51.232  24.705  0.00  0.00    +0.116 A 
ATOM      7  N   UNL     1      68.061  52.391  24.079  0.00  0.00    -0.223 NA
ATOM      8  C   UNL     1      66.988  53.123  24.553  0.00  0.00    +0.220 A 
ATOM      9  N   UNL     1      66.572  54.297  23.944  0.00  0.00    -0.283 N 
ATOM     36  H   UNL     1      65.771  54.804  24.321  0.00  0.00    +0.155 HD
ATOM     37  N   UNL     1      66.318  52.704  25.647  0.00  0.00    -0.214 NA
BRANCH   4   3
ATOM      1  C   UNL     1      64.997  49.568  29.242  0.00  0.00    +0.020 A 
ATOM      2  C   UNL     1      65.805  49.856  28.079  0.00  0.00    +0.013 A 
ATOM      3  C   UNL     1      65.853  51.202  27.521  0.00  0.00    +0.019 A 
ATOM     38  C   UNL     1      65.067  52.241  28.169  0.00  0.00    +0.120 A 
ATOM     39  N   UNL     1      64.298  51.933  29.287  0.00  0.00    -0.263 NA
ATOM     40  C   UNL     1      64.242  50.642  29.831  0.00  0.00    +0.111 A 
ENDBRANCH   4   3
ENDBRANCH  10   9
BRANCH  12  13
ATOM     13  N   UNL     1      67.409  54.119  19.043  0.00  0.00    -0.281 N 
ATOM     14  C   UNL     1      66.434  54.475  18.126  0.00  0.00    +0.248 C 
ATOM     30  O   UNL     1      65.472  55.185  18.380  0.00  0.00    -0.270 OA
ATOM     31  H   UNL     1      68.042  53.372  18.757  0.00  0.00    +0.155 HD
BRANCH  14  15
ATOM     15  C   UNL     1      66.533  53.956  16.728  0.00  0.00    +0.037 A 
ATOM     16  C   UNL     1      66.923  52.570  16.457  0.00  0.00    +0.013 A 
ATOM     17  C   UNL     1      67.028  52.100  15.099  0.00  0.00    +0.005 A 
ATOM     18  C   UNL     1      66.741  53.018  13.999  0.00  0.00    -0.033 A 
ATOM     28  C   UNL     1      66.351  54.386  14.296  0.00  0.00    +0.005 A 
ATOM     29  C   UNL     1      66.248  54.851  15.626  0.00  0.00    +0.013 A 
BRANCH  18  19
ATOM     19  C   UNL     1      66.848  52.608  12.518  0.00  0.00    +0.119 C 
BRANCH  19  20
ATOM     20  N   UNL     1      66.519  51.193  12.175  0.00  0.00    -0.302 NA
ATOM     21  C   UNL     1      67.286  50.708  10.941  0.00  0.00    +0.066 C 
ATOM     22  C   UNL     1      66.947  49.218  10.610  0.00  0.00    -0.064 C 
ATOM     23  N   UNL     1      65.438  49.075  10.400  0.00  0.00    +0.379 N 
ATOM     24  C   UNL     1      65.123  47.687  10.031  0.00  0.00    -0.096 C 
ATOM     25  H   UNL     1      65.154  49.727   9.542  0.00  0.00    -0.082 HD
ATOM     26  C   UNL     1      64.668  49.558  11.621  0.00  0.00    -0.064 C 
ATOM     27  C   UNL     1      65.034  51.030  11.960  0.00  0.00    +0.066 C 
ENDBRANCH  19  20
ENDBRANCH  18  19
ENDBRANCH  14  15
ENDBRANCH  12  13
TORSDOF 6
ENDMDL
MODEL 4
REMARK VINA RESULT:      -7.5      3.288      4.844
REMARK  Name = C:\Users\Docking\Desktop\test protocol\1iep_ligandH.pdb
REMARK  8 active torsions:
REMARK  status: ('A' for Active; 'I' for Inactive)
REMARK    1  A    between atoms: _5  and  _11
REMARK    2  A    between atoms: _19  and  _21
REMARK    3  A    between atoms: _22  and  _66
REMARK    4  A    between atoms: _27  and  _30
REMARK    5  A    between atoms: _32  and  _33
REMARK    6  A    between atoms: _38  and  _43
REMARK    7  A    between atoms: _43  and  _46
REMARK    8  A    between atoms: _53  and  _55
REMARK                            x       y       z     vdW  Elec       q    Type
REMARK                         _______ _______ _______ _____ _____    ______ ____
ROOT
ATOM     10  C   UNL     1      67.861  53.339  17.249  0.00  0.00    +0.038 A 
ATOM     11  C   UNL     1      68.384  54.576  16.792  0.00  0.00    +0.047 A 
ATOM     12  C   UNL     1      68.633  55.674  17.713  0.00  0.00    +0.035 A 
ATOM     32  C   UNL     1      68.339  55.478  19.094  0.00  0.00    +0.024 A 
ATOM     33  C   UNL     1      67.806  54.228  19.576  0.00  0.00    +0.007 A 
ATOM     34  C   UNL     1      67.556  53.142  18.672  0.00  0.00    -0.029 A 
ATOM     35  C   UNL     1      66.977  51.826  19.243  0.00  0.00    +0.045 C 
ENDROOT
BRANCH  10   9
ATOM      4  C   UNL     1      66.354  51.755  12.976  0.00  0.00    +0.077 A 
ATOM      5  C   UNL     1      65.944  53.068  12.568  0.00  0.00    +0.048 A 
ATOM      6  C   UNL     1      66.132  54.122  13.490  0.00  0.00    +0.116 A 
ATOM      7  N   UNL     1      66.689  53.871  14.725  0.00  0.00    -0.223 NA
ATOM      8  C   UNL     1      67.072  52.593  15.088  0.00  0.00    +0.220 A 
ATOM      9  N   UNL     1      67.642  52.318  16.322  0.00  0.00    -0.283 N 
ATOM     36  H   UNL     1      67.904  51.361  16.554  0.00  0.00    +0.155 HD
ATOM     37  N   UNL     1      66.902  51.568  14.226  0.00  0.00    -0.214 NA
BRANCH   4   3
ATOM      1  C   UNL     1      64.893  48.658  11.086  0.00  0.00    +0.020 A 
ATOM      2  C   UNL     1      64.965  49.827  11.932  0.00  0.00    +0.013 A 
ATOM      3  C   UNL     1      66.224  50.539  12.113  0.00  0.00    +0.019 A 
ATOM     38  C   UNL     1      67.400  50.038  11.418  0.00  0.00    +0.120 A 
ATOM     39  N   UNL     1      67.301  48.909  10.611  0.00  0.00    -0.263 NA
ATOM     40  C   UNL     1      66.096  48.215  10.431  0.00  0.00    +0.111 A 
ENDBRANCH   4   3
ENDBRANCH  10   9
BRANCH  12  13
ATOM     13  N   UNL     1      69.155  56.955  17.306  0.00  0.00    -0.281 N 
ATOM     14  C   UNL     1      70.388  57.229  16.736  0.00  0.00    +0.248 C 
ATOM     30  O   UNL     1      71.318  56.438  16.686  0.00  0.00    -0.270 OA
ATOM     31  H   UNL     1      68.542  57.756  17.455  0.00  0.00    +0.155 HD
BRANCH  14  15
ATOM     15  C   UNL     1      70.627  58.583  16.150  0.00  0.00    +0.037 A 
ATOM     16  C   UNL     1      71.556  58.775  15.033  0.00  0.00    +0.013 A 
ATOM     17  C   UNL     1      71.781  60.094  14.498  0.00  0.00    +0.005 A 
ATOM     18  C   UNL     1      71.073  61.233  15.078  0.00  0.00    -0.033 A 
ATOM     28  C   UNL     1      70.153  61.014  16.182  0.00  0.00    +0.005 A 
ATOM     29  C   UNL     1      69.931  59.722  16.710  0.00  0.00    +0.013 A 
BRANCH  18  19
ATOM     19  C   UNL     1      71.268  62.679  14.584  0.00  0.00    +0.119 C 
BRANCH  19  20
ATOM     20  N   UNL     1      71.706  62.864  13.168  0.00  0.00    -0.302 NA
ATOM     21  C   UNL     1      72.850  63.875  13.049  0.00  0.00    +0.066 C 
ATOM     22  C   UNL     1      73.312  64.040  11.564  0.00  0.00    -0.064 C 
ATOM     23  N   UNL     1      72.119  64.468  10.707  0.00  0.00    +0.379 N 
ATOM     24  C   UNL     1      72.562  64.681   9.322  0.00  0.00    -0.096 C 
ATOM     25  H   UNL     1      71.755  65.446  11.100  0.00  0.00    -0.082 HD
ATOM     26  C   UNL     1      70.976  63.470  10.822  0.00  0.00    -0.064 C 
ATOM     27  C   UNL     1      70.545  63.291  12.305  0.00  0.00    +0.066 C 
ENDBRANCH  19  20
ENDBRANCH  18  19
ENDBRANCH  14  15
ENDBRANCH  12  13
TORSDOF 6
ENDMDL
MODEL 5
REMARK VINA RESULT:      -7.4      3.423      5.025
REMARK  Name = C:\Users\Docking\Desktop\test protocol\1iep_ligandH.pdb
REMARK  8 active torsions:
REMARK  status: ('A' for Active; 'I' for Inactive)
REMARK    1  A    between atoms: _5  and  _11
REMARK    2  A    between atoms: _19  and  _21
REMARK    3  A    between atoms: _22  and  _66
REMARK    4  A    between atoms: _27  and  _30
REMARK    5  A    between atoms: _32  and  _33
REMARK    6  A    between atoms: _38  and  _43
REMARK    7  A    between atoms: _43  and  _46
REMARK    8  A    between atoms: _53  and  _55
REMARK                            x       y       z     vdW  Elec       q    Type
REMARK                         _______ _______ _______ _____ _____    ______ ____
ROOT
ATOM     10  C   UNL     1      67.776  53.256  18.472  0.00  0.00    +0.038 A 
ATOM     11  C   UNL     1      68.104  54.573  18.061  0.00  0.00    +0.047 A 
ATOM     12  C   UNL     1      68.383  55.617  19.035  0.00  0.00    +0.035 A 
ATOM     32  C   UNL     1      68.322  55.284  20.419  0.00  0.00    +0.024 A 
ATOM     33  C   UNL     1      67.989  53.950  20.854  0.00  0.00    +0.007 A 
ATOM     34  C   UNL     1      67.711  52.917  19.898  0.00  0.00    -0.029 A 
ATOM     35  C   UNL     1      67.353  51.506  20.422  0.00  0.00    +0.045 C 
ENDROOT
BRANCH  10   9
ATOM      4  C   UNL     1      66.460  51.973  14.038  0.00  0.00    +0.077 A 
ATOM      5  C   UNL     1      66.243  53.335  13.644  0.00  0.00    +0.048 A 
ATOM      6  C   UNL     1      66.475  54.336  14.614  0.00  0.00    +0.116 A 
ATOM      7  N   UNL     1      66.893  53.988  15.881  0.00  0.00    -0.223 NA
ATOM      8  C   UNL     1      67.090  52.664  16.228  0.00  0.00    +0.220 A 
ATOM      9  N   UNL     1      67.517  52.293  17.494  0.00  0.00    -0.283 N 
ATOM     36  H   UNL     1      67.644  51.305  17.713  0.00  0.00    +0.155 HD
ATOM     37  N   UNL     1      66.874  51.690  15.320  0.00  0.00    -0.214 NA
BRANCH   4   3
ATOM      1  C   UNL     1      65.002  49.559  11.326  0.00  0.00    +0.020 A 
ATOM      2  C   UNL     1      65.148  50.711  12.187  0.00  0.00    +0.013 A 
ATOM      3  C   UNL     1      66.260  50.803  13.124  0.00  0.00    +0.019 A 
ATOM     38  C   UNL     1      67.215  49.706  13.166  0.00  0.00    +0.120 A 
ATOM     39  N   UNL     1      67.048  48.609  12.326  0.00  0.00    -0.263 NA
ATOM     40  C   UNL     1      65.980  48.508  11.421  0.00  0.00    +0.111 A 
ENDBRANCH   4   3
ENDBRANCH  10   9
BRANCH  12  13
ATOM     13  N   UNL     1      68.713  56.975  18.678  0.00  0.00    -0.281 N 
ATOM     14  C   UNL     1      67.997  58.127  18.957  0.00  0.00    +0.248 C 
ATOM     30  O   UNL     1      66.849  58.143  19.375  0.00  0.00    -0.270 OA
ATOM     31  H   UNL     1      69.581  57.101  18.156  0.00  0.00    +0.155 HD
BRANCH  14  15
ATOM     15  C   UNL     1      68.646  59.454  18.726  0.00  0.00    +0.037 A 
ATOM     16  C   UNL     1      68.717  60.460  19.789  0.00  0.00    +0.013 A 
ATOM     17  C   UNL     1      69.333  61.738  19.534  0.00  0.00    +0.005 A 
ATOM     18  C   UNL     1      69.884  62.017  18.210  0.00  0.00    -0.033 A 
ATOM     28  C   UNL     1      69.804  60.999  17.176  0.00  0.00    +0.005 A 
ATOM     29  C   UNL     1      69.200  59.745  17.422  0.00  0.00    +0.013 A 
BRANCH  18  19
ATOM     19  C   UNL     1      70.540  63.361  17.843  0.00  0.00    +0.119 C 
BRANCH  19  20
ATOM     20  N   UNL     1      71.095  63.497  16.464  0.00  0.00    -0.302 NA
ATOM     21  C   UNL     1      72.610  63.272  16.429  0.00  0.00    +0.066 C 
ATOM     22  C   UNL     1      73.171  63.396  14.975  0.00  0.00    -0.064 C 
ATOM     23  N   UNL     1      72.814  64.771  14.409  0.00  0.00    +0.379 N 
ATOM     24  C   UNL     1      73.390  64.912  13.064  0.00  0.00    -0.096 C 
ATOM     25  H   UNL     1      73.289  65.539  15.063  0.00  0.00    -0.082 HD
ATOM     26  C   UNL     1      71.310  65.004  14.442  0.00  0.00    -0.064 C 
ATOM     27  C   UNL     1      70.759  64.850  15.887  0.00  0.00    +0.066 C 
ENDBRANCH  19  20
ENDBRANCH  18  19
ENDBRANCH  14  15
ENDBRANCH  12  13
TORSDOF 6
ENDMDL
