MODEL 1
REMARK VINA RESULT:      -8.3      0.000      0.000
REMARK  Name = C:\Users\Docking\Desktop\test protocol\1iep_ligandH.pdb
REMARK  8 active torsions:
REMARK  status: ('A' for Active; 'I' for Inactive)
REMARK    1  A    between atoms: _5  and  _11
REMARK    2  A    between atoms: _19  and  _21
REMARK    3  A    between atoms: _22  and  _66
REMARK    4  A    between atoms: _27  and  _30
REMARK    5  A    between atoms: _32  and  _33
REMARK    6  A    between atoms: _38  and  _43
REMARK    7  A    between atoms: _43  and  _46
REMARK    8  A    between atoms: _53  and  _55
REMARK                            x       y       z     vdW  Elec       q    Type
REMARK                         _______ _______ _______ _____ _____    ______ ____
ROOT
ATOM     10  C   UNL     1      68.035  52.280  14.237  0.00  0.00    +0.038 A 
ATOM     11  C   UNL     1      67.171  51.307  13.672  0.00  0.00    +0.047 A 
ATOM     12  C   UNL     1      66.969  51.225  12.234  0.00  0.00    +0.035 A 
ATOM     32  C   UNL     1      67.665  52.147  11.400  0.00  0.00    +0.024 A 
ATOM     33  C   UNL     1      68.547  53.143  11.958  0.00  0.00    +0.007 A 
ATOM     34  C   UNL     1      68.748  53.231  13.376  0.00  0.00    -0.029 A 
ATOM     35  C   UNL     1      69.699  54.322  13.919  0.00  0.00    +0.045 C 
ENDROOT
BRANCH  10   9
ATOM      4  C   UNL     1      66.775  53.828  18.602  0.00  0.00    +0.077 A 
ATOM      5  C   UNL     1      65.733  54.660  18.071  0.00  0.00    +0.048 A 
ATOM      6  C   UNL     1      65.559  54.666  16.669  0.00  0.00    +0.116 A 
ATOM      7  N   UNL     1      66.372  53.894  15.867  0.00  0.00    -0.223 NA
ATOM      8  C   UNL     1      67.368  53.105  16.411  0.00  0.00    +0.220 A 
ATOM      9  N   UNL     1      68.191  52.314  15.625  0.00  0.00    -0.283 N 
ATOM     36  H   UNL     1      68.919  51.751  16.064  0.00  0.00    +0.155 HD
ATOM     37  N   UNL     1      67.555  53.082  17.748  0.00  0.00    -0.214 NA
BRANCH   4   3
ATOM      1  C   UNL     1      66.861  54.466  22.460  0.00  0.00    +0.020 A 
ATOM      2  C   UNL     1      66.535  54.623  21.062  0.00  0.00    +0.013 A 
ATOM      3  C   UNL     1      67.080  53.712  20.063  0.00  0.00    +0.019 A 
ATOM     38  C   UNL     1      67.957  52.643  20.517  0.00  0.00    +0.120 A 
ATOM     39  N   UNL     1      68.255  52.518  21.871  0.00  0.00    -0.263 NA
ATOM     40  C   UNL     1      67.737  53.390  22.840  0.00  0.00    +0.111 A 
ENDBRANCH   4   3
ENDBRANCH  10   9
BRANCH  12  13
ATOM     13  N   UNL     1      66.098  50.264  11.604  0.00  0.00    -0.281 N 
ATOM     14  C   UNL     1      64.717  50.304  11.503  0.00  0.00    +0.248 C 
ATOM     30  O   UNL     1      64.000  51.070  12.130  0.00  0.00    -0.270 OA
ATOM     31  H   UNL     1      66.555  49.456  11.180  0.00  0.00    +0.155 HD
BRANCH  14  15
ATOM     15  C   UNL     1      64.032  49.345  10.584  0.00  0.00    +0.037 A 
ATOM     16  C   UNL     1      64.797  48.443   9.719  0.00  0.00    +0.013 A 
ATOM     17  C   UNL     1      64.111  47.539   8.829  0.00  0.00    +0.005 A 
ATOM     18  C   UNL     1      62.651  47.532   8.802  0.00  0.00    -0.033 A 
ATOM     28  C   UNL     1      61.917  48.434   9.674  0.00  0.00    +0.005 A 
ATOM     29  C   UNL     1      62.585  49.321  10.547  0.00  0.00    +0.013 A 
BRANCH  18  19
ATOM     19  C   UNL     1      61.836  46.617   7.869  0.00  0.00    +0.119 C 
BRANCH  19  20
ATOM     20  N   UNL     1      61.445  47.171   6.538  0.00  0.00    -0.302 NA
ATOM     21  C   UNL     1      60.964  48.621   6.639  0.00  0.00    +0.066 C 
ATOM     22  C   UNL     1      60.580  49.192   5.235  0.00  0.00    -0.064 C 
ATOM     23  N   UNL     1      59.503  48.307   4.605  0.00  0.00    +0.379 N 
ATOM     24  C   UNL     1      59.098  48.873   3.310  0.00  0.00    -0.096 C 
ATOM     25  H   UNL     1      58.613  48.327   5.276  0.00  0.00    -0.082 HD
ATOM     26  C   UNL     1      59.972  46.862   4.504  0.00  0.00    -0.064 C 
ATOM     27  C   UNL     1      60.379  46.314   5.900  0.00  0.00    +0.066 C 
ENDBRANCH  19  20
ENDBRANCH  18  19
ENDBRANCH  14  15
ENDBRANCH  12  13
TORSDOF 6
ENDMDL
MODEL 2
REMARK VINA RESULT:      -8.3      1.449      1.914
REMARK  Name = C:\Users\Docking\Desktop\test protocol\1iep_ligandH.pdb
REMARK  8 active torsions:
REMARK  status: ('A' for Active; 'I' for Inactive)
REMARK    1  A    between atoms: _5  and  _11
REMARK    2  A    between atoms: _19  and  _21
REMARK    3  A    between atoms: _22  and  _66
REMARK    4  A    between atoms: _27  and  _30
REMARK    5  A    between atoms: _32  and  _33
REMARK    6  A    between atoms: _38  and  _43
REMARK    7  A    between atoms: _43  and  _46
REMARK    8  A    between atoms: _53  and  _55
REMARK                            x       y       z     vdW  Elec       q    Type
REMARK                         _______ _______ _______ _____ _____    ______ ____
ROOT
ATOM     10  C   UNL     1      67.835  50.481  13.180  0.00  0.00    +0.038 A 
ATOM     11  C   UNL     1      66.726  49.822  12.590  0.00  0.00    +0.047 A 
ATOM     12  C   UNL     1      66.728  49.464  11.180  0.00  0.00    +0.035 A 
ATOM     32  C   UNL     1      67.876  49.790  10.401  0.00  0.00    +0.024 A 
ATOM     33  C   UNL     1      69.011  50.461  10.985  0.00  0.00    +0.007 A 
ATOM     34  C   UNL     1      69.014  50.819  12.374  0.00  0.00    -0.029 A 
ATOM     35  C   UNL     1      70.255  51.543  12.945  0.00  0.00    +0.045 C 
ENDROOT
BRANCH  10   9
ATOM      4  C   UNL     1      66.868  53.504  16.781  0.00  0.00    +0.077 A 
ATOM      5  C   UNL     1      66.463  54.543  15.878  0.00  0.00    +0.048 A 
ATOM      6  C   UNL     1      66.525  54.262  14.495  0.00  0.00    +0.116 A 
ATOM      7  N   UNL     1      66.961  53.030  14.058  0.00  0.00    -0.223 NA
ATOM      8  C   UNL     1      67.346  52.050  14.955  0.00  0.00    +0.220 A 
ATOM      9  N   UNL     1      67.780  50.801  14.539  0.00  0.00    -0.283 N 
ATOM     36  H   UNL     1      68.062  50.109  15.232  0.00  0.00    +0.155 HD
ATOM     37  N   UNL     1      67.297  52.295  16.281  0.00  0.00    -0.214 NA
BRANCH   4   3
ATOM      1  C   UNL     1      66.372  54.930  20.389  0.00  0.00    +0.020 A 
ATOM      2  C   UNL     1      66.363  54.842  18.947  0.00  0.00    +0.013 A 
ATOM      3  C   UNL     1      66.856  53.649  18.271  0.00  0.00    +0.019 A 
ATOM     38  C   UNL     1      67.355  52.554  19.089  0.00  0.00    +0.120 A 
ATOM     39  N   UNL     1      67.353  52.668  20.476  0.00  0.00    -0.263 NA
ATOM     40  C   UNL     1      66.883  53.812  21.138  0.00  0.00    +0.111 A 
ENDBRANCH   4   3
ENDBRANCH  10   9
BRANCH  12  13
ATOM     13  N   UNL     1      65.628  48.801  10.523  0.00  0.00    -0.281 N 
ATOM     14  C   UNL     1      64.276  49.082  10.633  0.00  0.00    +0.248 C 
ATOM     30  O   UNL     1      63.789  49.814  11.482  0.00  0.00    -0.270 OA
ATOM     31  H   UNL     1      65.877  48.030   9.903  0.00  0.00    +0.155 HD
BRANCH  14  15
ATOM     15  C   UNL     1      63.326  48.448   9.668  0.00  0.00    +0.037 A 
ATOM     16  C   UNL     1      63.795  47.508   8.647  0.00  0.00    +0.013 A 
ATOM     17  C   UNL     1      62.860  46.924   7.719  0.00  0.00    +0.005 A 
ATOM     18  C   UNL     1      61.445  47.278   7.808  0.00  0.00    -0.033 A 
ATOM     28  C   UNL     1      61.007  48.209   8.834  0.00  0.00    +0.005 A 
ATOM     29  C   UNL     1      61.921  48.785   9.746  0.00  0.00    +0.013 A 
BRANCH  18  19
ATOM     19  C   UNL     1      60.381  46.719   6.846  0.00  0.00    +0.119 C 
BRANCH  19  20
ATOM     20  N   UNL     1      60.229  47.399   5.525  0.00  0.00    -0.302 NA
ATOM     21  C   UNL     1      60.545  48.895   5.609  0.00  0.00    +0.066 C 
ATOM     22  C   UNL     1      60.403  49.586   4.214  0.00  0.00    -0.064 C 
ATOM     23  N   UNL     1      58.988  49.361   3.679  0.00  0.00    +0.379 N 
ATOM     24  C   UNL     1      58.833  50.059   2.394  0.00  0.00    -0.096 C 
ATOM     25  H   UNL     1      58.275  49.822   4.402  0.00  0.00    -0.082 HD
ATOM     26  C   UNL     1      58.664  47.877   3.594  0.00  0.00    -0.064 C 
ATOM     27  C   UNL     1      58.837  47.193   4.979  0.00  0.00    +0.066 C 
ENDBRANCH  19  20
ENDBRANCH  18  19
ENDBRANCH  14  15
ENDBRANCH  12  13
TORSDOF 6
ENDMDL
MODEL 3
REMARK VINA RESULT:      -8.1      1.821      2.930
REMARK  Name = C:\Users\Docking\Desktop\test protocol\1iep_ligandH.pdb
REMARK  8 active torsions:
REMARK  status: ('A' for Active; 'I' for Inactive)
REMARK    1  A    between atoms: _5  and  _11
REMARK    2  A    between atoms: _19  and  _21
REMARK    3  A    between atoms: _22  and  _66
REMARK    4  A    between atoms: _27  and  _30
REMARK    5  A    between atoms: _32  and  _33
REMARK    6  A    between atoms: _38  and  _43
REMARK    7  A    between atoms: _43  and  _46
REMARK    8  A    between atoms: _53  and  _55
REMARK                            x       y       z     vdW  Elec       q    Type
REMARK                         _______ _______ _______ _____ _____    ______ ____
ROOT
ATOM     10  C   UNL     1      68.325  54.152  16.393  0.00  0.00    +0.038 A 
ATOM     11  C   UNL     1      67.678  53.143  15.635  0.00  0.00    +0.047 A 
ATOM     12  C   UNL     1      67.211  53.402  14.281  0.00  0.00    +0.035 A 
ATOM     32  C   UNL     1      67.423  54.700  13.730  0.00  0.00    +0.024 A 
ATOM     33  C   UNL     1      68.078  55.737  14.488  0.00  0.00    +0.007 A 
ATOM     34  C   UNL     1      68.538  55.488  15.824  0.00  0.00    -0.029 A 
ATOM     35  C   UNL     1      69.228  56.640  16.591  0.00  0.00    +0.045 C 
ENDROOT
BRANCH  10   9
ATOM      4  C   UNL     1      67.684  54.053  21.149  0.00  0.00    +0.077 A 
ATOM      5  C   UNL     1      66.399  54.683  21.048  0.00  0.00    +0.048 A 
ATOM      6  C   UNL     1      65.943  55.023  19.755  0.00  0.00    +0.116 A 
ATOM      7  N   UNL     1      66.721  54.749  18.651  0.00  0.00    -0.223 NA
ATOM      8  C   UNL     1      67.957  54.142  18.784  0.00  0.00    +0.220 A 
ATOM      9  N   UNL     1      68.753  53.849  17.688  0.00  0.00    -0.283 N 
ATOM     36  H   UNL     1      69.661  53.407  17.828  0.00  0.00    +0.155 HD
ATOM     37  N   UNL     1      68.416  53.808  20.008  0.00  0.00    -0.214 NA
BRANCH   4   3
ATOM      1  C   UNL     1      69.337  54.121  24.693  0.00  0.00    +0.020 A 
ATOM      2  C   UNL     1      68.747  54.581  23.457  0.00  0.00    +0.013 A 
ATOM      3  C   UNL     1      68.301  53.631  22.445  0.00  0.00    +0.019 A 
ATOM     38  C   UNL     1      68.467  52.211  22.718  0.00  0.00    +0.120 A 
ATOM     39  N   UNL     1      69.040  51.798  23.917  0.00  0.00    -0.263 NA
ATOM     40  C   UNL     1      69.474  52.703  24.897  0.00  0.00    +0.111 A 
ENDBRANCH   4   3
ENDBRANCH  10   9
BRANCH  12  13
ATOM     13  N   UNL     1      66.541  52.420  13.467  0.00  0.00    -0.281 N 
ATOM     14  C   UNL     1      66.357  52.434  12.094  0.00  0.00    +0.248 C 
ATOM     30  O   UNL     1      66.558  53.405  11.379  0.00  0.00    -0.270 OA
ATOM     31  H   UNL     1      66.154  51.616  13.962  0.00  0.00    +0.155 HD
BRANCH  14  15
ATOM     15  C   UNL     1      65.867  51.194  11.418  0.00  0.00    +0.037 A 
ATOM     16  C   UNL     1      66.723  50.440  10.498  0.00  0.00    +0.013 A 
ATOM     17  C   UNL     1      66.219  49.257   9.847  0.00  0.00    +0.005 A 
ATOM     18  C   UNL     1      64.851  48.820  10.114  0.00  0.00    -0.033 A 
ATOM     28  C   UNL     1      64.025  49.584  11.035  0.00  0.00    +0.005 A 
ATOM     29  C   UNL     1      64.515  50.744  11.674  0.00  0.00    +0.013 A 
BRANCH  18  19
ATOM     19  C   UNL     1      64.223  47.582   9.447  0.00  0.00    +0.119 C 
BRANCH  19  20
ATOM     20  N   UNL     1      63.225  47.821   8.363  0.00  0.00    -0.302 NA
ATOM     21  C   UNL     1      61.792  47.869   8.901  0.00  0.00    +0.066 C 
ATOM     22  C   UNL     1      60.763  48.143   7.757  0.00  0.00    -0.064 C 
ATOM     23  N   UNL     1      60.902  47.064   6.680  0.00  0.00    +0.379 N 
ATOM     24  C   UNL     1      59.896  47.286   5.631  0.00  0.00    -0.096 C 
ATOM     25  H   UNL     1      60.683  46.081   7.157  0.00  0.00    -0.082 HD
ATOM     26  C   UNL     1      62.324  47.009   6.142  0.00  0.00    -0.064 C 
ATOM     27  C   UNL     1      63.342  46.766   7.291  0.00  0.00    +0.066 C 
ENDBRANCH  19  20
ENDBRANCH  18  19
ENDBRANCH  14  15
ENDBRANCH  12  13
TORSDOF 6
ENDMDL
MODEL 4
REMARK VINA RESULT:      -8.0      8.897     15.788
REMARK  Name = C:\Users\Docking\Desktop\test protocol\1iep_ligandH.pdb
REMARK  8 active torsions:
REMARK  status: ('A' for Active; 'I' for Inactive)
REMARK    1  A    between atoms: _5  and  _11
REMARK    2  A    between atoms: _19  and  _21
REMARK    3  A    between atoms: _22  and  _66
REMARK    4  A    between atoms: _27  and  _30
REMARK    5  A    between atoms: _32  and  _33
REMARK    6  A    between atoms: _38  and  _43
REMARK    7  A    between atoms: _43  and  _46
REMARK    8  A    between atoms: _53  and  _55
REMARK                            x       y       z     vdW  Elec       q    Type
REMARK                         _______ _______ _______ _____ _____    ______ ____
ROOT
ATOM     10  C   UNL     1      71.309  56.406  14.209  0.00  0.00    +0.038 A 
ATOM     11  C   UNL     1      71.115  57.794  13.995  0.00  0.00    +0.047 A 
ATOM     12  C   UNL     1      71.914  58.783  14.700  0.00  0.00    +0.035 A 
ATOM     32  C   UNL     1      72.905  58.323  15.616  0.00  0.00    +0.024 A 
ATOM     33  C   UNL     1      73.115  56.915  15.846  0.00  0.00    +0.007 A 
ATOM     34  C   UNL     1      72.328  55.935  15.155  0.00  0.00    -0.029 A 
ATOM     35  C   UNL     1      72.592  54.439  15.446  0.00  0.00    +0.045 C 
ENDROOT
BRANCH  10   9
ATOM      4  C   UNL     1      67.321  53.785  13.693  0.00  0.00    +0.077 A 
ATOM      5  C   UNL     1      66.790  54.239  14.946  0.00  0.00    +0.048 A 
ATOM      6  C   UNL     1      67.577  55.141  15.697  0.00  0.00    +0.116 A 
ATOM      7  N   UNL     1      68.803  55.552  15.219  0.00  0.00    -0.223 NA
ATOM      8  C   UNL     1      69.287  55.093  14.007  0.00  0.00    +0.220 A 
ATOM      9  N   UNL     1      70.513  55.500  13.504  0.00  0.00    -0.283 N 
ATOM     36  H   UNL     1      70.838  55.133  12.610  0.00  0.00    +0.155 HD
ATOM     37  N   UNL     1      68.554  54.230  13.273  0.00  0.00    -0.214 NA
BRANCH   4   3
ATOM      1  C   UNL     1      64.767  51.184  12.275  0.00  0.00    +0.020 A 
ATOM      2  C   UNL     1      65.420  52.090  13.191  0.00  0.00    +0.013 A 
ATOM      3  C   UNL     1      66.606  52.833  12.785  0.00  0.00    +0.019 A 
ATOM     38  C   UNL     1      67.109  52.636  11.434  0.00  0.00    +0.120 A 
ATOM     39  N   UNL     1      66.460  51.755  10.574  0.00  0.00    -0.263 NA
ATOM     40  C   UNL     1      65.319  51.033  10.955  0.00  0.00    +0.111 A 
ENDBRANCH   4   3
ENDBRANCH  10   9
BRANCH  12  13
ATOM     13  N   UNL     1      71.757  60.207  14.530  0.00  0.00    -0.281 N 
ATOM     14  C   UNL     1      70.941  61.065  15.249  0.00  0.00    +0.248 C 
ATOM     30  O   UNL     1      70.058  60.703  16.012  0.00  0.00    -0.270 OA
ATOM     31  H   UNL     1      72.314  60.633  13.789  0.00  0.00    +0.155 HD
BRANCH  14  15
ATOM     15  C   UNL     1      71.123  62.540  15.085  0.00  0.00    +0.037 A 
ATOM     16  C   UNL     1      70.992  63.181  13.774  0.00  0.00    +0.013 A 
ATOM     17  C   UNL     1      71.189  64.603  13.641  0.00  0.00    +0.005 A 
ATOM     18  C   UNL     1      71.519  65.393  14.824  0.00  0.00    -0.033 A 
ATOM     28  C   UNL     1      71.638  64.733  16.113  0.00  0.00    +0.005 A 
ATOM     29  C   UNL     1      71.446  63.339  16.247  0.00  0.00    +0.013 A 
BRANCH  18  19
ATOM     19  C   UNL     1      71.767  66.913  14.772  0.00  0.00    +0.119 C 
BRANCH  19  20
ATOM     20  N   UNL     1      73.156  67.388  15.048  0.00  0.00    -0.302 NA
ATOM     21  C   UNL     1      73.167  68.697  15.843  0.00  0.00    +0.066 C 
ATOM     22  C   UNL     1      74.628  69.168  16.141  0.00  0.00    -0.064 C 
ATOM     23  N   UNL     1      75.389  69.328  14.824  0.00  0.00    +0.379 N 
ATOM     24  C   UNL     1      76.745  69.826  15.098  0.00  0.00    -0.096 C 
ATOM     25  H   UNL     1      74.860  70.101  14.220  0.00  0.00    -0.082 HD
ATOM     26  C   UNL     1      75.380  68.032  14.026  0.00  0.00    -0.064 C 
ATOM     27  C   UNL     1      73.924  67.557  13.760  0.00  0.00    +0.066 C 
ENDBRANCH  19  20
ENDBRANCH  18  19
ENDBRANCH  14  15
ENDBRANCH  12  13
TORSDOF 6
ENDMDL
MODEL 5
REMARK VINA RESULT:      -8.0      2.460     13.559
REMARK  Name = C:\Users\Docking\Desktop\test protocol\1iep_ligandH.pdb
REMARK  8 active torsions:
REMARK  status: ('A' for Active; 'I' for Inactive)
REMARK    1  A    between atoms: _5  and  _11
REMARK    2  A    between atoms: _19  and  _21
REMARK    3  A    between atoms: _22  and  _66
REMARK    4  A    between atoms: _27  and  _30
REMARK    5  A    between atoms: _32  and  _33
REMARK    6  A    between atoms: _38  and  _43
REMARK    7  A    between atoms: _43  and  _46
REMARK    8  A    between atoms: _53  and  _55
REMARK                            x       y       z     vdW  Elec       q    Type
REMARK                         _______ _______ _______ _____ _____    ______ ____
ROOT
ATOM     10  C   UNL     1      67.507  52.710  13.200  0.00  0.00    +0.038 A 
ATOM     11  C   UNL     1      67.128  52.985  14.539  0.00  0.00    +0.047 A 
ATOM     12  C   UNL     1      68.069  53.566  15.483  0.00  0.00    +0.035 A 
ATOM     32  C   UNL     1      69.388  53.858  15.029  0.00  0.00    +0.024 A 
ATOM     33  C   UNL     1      69.791  53.584  13.672  0.00  0.00    +0.007 A 
ATOM     34  C   UNL     1      68.868  53.008  12.737  0.00  0.00    -0.029 A 
ATOM     35  C   UNL     1      69.356  52.729  11.296  0.00  0.00    +0.045 C 
ENDROOT
BRANCH  10   9
ATOM      4  C   UNL     1      65.291  48.943  11.215  0.00  0.00    +0.077 A 
ATOM      5  C   UNL     1      66.102  48.009  11.942  0.00  0.00    +0.048 A 
ATOM      6  C   UNL     1      67.082  48.538  12.811  0.00  0.00    +0.116 A 
ATOM      7  N   UNL     1      67.232  49.902  12.936  0.00  0.00    -0.223 NA
ATOM      8  C   UNL     1      66.435  50.776  12.219  0.00  0.00    +0.220 A 
ATOM      9  N   UNL     1      66.563  52.151  12.336  0.00  0.00    -0.283 N 
ATOM     36  H   UNL     1      65.961  52.762  11.784  0.00  0.00    +0.155 HD
ATOM     37  N   UNL     1      65.492  50.295  11.382  0.00  0.00    -0.214 NA
BRANCH   4   3
ATOM      1  C   UNL     1      61.832  48.593   9.423  0.00  0.00    +0.020 A 
ATOM      2  C   UNL     1      62.838  49.015  10.371  0.00  0.00    +0.013 A 
ATOM      3  C   UNL     1      64.211  48.538  10.261  0.00  0.00    +0.019 A 
ATOM     38  C   UNL     1      64.536  47.630   9.172  0.00  0.00    +0.120 A 
ATOM     39  N   UNL     1      63.547  47.240   8.275  0.00  0.00    -0.263 NA
ATOM     40  C   UNL     1      62.222  47.691   8.371  0.00  0.00    +0.111 A 
ENDBRANCH   4   3
ENDBRANCH  10   9
BRANCH  12  13
ATOM     13  N   UNL     1      67.743  53.860  16.857  0.00  0.00    -0.281 N 
ATOM     14  C   UNL     1      67.452  52.965  17.873  0.00  0.00    +0.248 C 
ATOM     30  O   UNL     1      67.218  51.778  17.702  0.00  0.00    -0.270 OA
ATOM     31  H   UNL     1      67.725  54.848  17.111  0.00  0.00    +0.155 HD
BRANCH  14  15
ATOM     15  C   UNL     1      67.400  53.464  19.281  0.00  0.00    +0.037 A 
ATOM     16  C   UNL     1      66.978  54.833  19.588  0.00  0.00    +0.013 A 
ATOM     17  C   UNL     1      66.953  55.293  20.953  0.00  0.00    +0.005 A 
ATOM     18  C   UNL     1      67.351  54.382  22.024  0.00  0.00    -0.033 A 
ATOM     28  C   UNL     1      67.760  53.028  21.692  0.00  0.00    +0.005 A 
ATOM     29  C   UNL     1      67.787  52.573  20.355  0.00  0.00    +0.013 A 
BRANCH  18  19
ATOM     19  C   UNL     1      67.375  54.795  23.507  0.00  0.00    +0.119 C 
BRANCH  19  20
ATOM     20  N   UNL     1      68.684  55.240  24.072  0.00  0.00    -0.302 NA
ATOM     21  C   UNL     1      69.551  55.945  23.025  0.00  0.00    +0.066 C 
ATOM     22  C   UNL     1      70.907  56.423  23.639  0.00  0.00    -0.064 C 
ATOM     23  N   UNL     1      71.646  55.224  24.235  0.00  0.00    +0.379 N 
ATOM     24  C   UNL     1      72.947  55.661  24.761  0.00  0.00    -0.096 C 
ATOM     25  H   UNL     1      71.840  54.501  23.409  0.00  0.00    -0.082 HD
ATOM     26  C   UNL     1      70.789  54.516  25.275  0.00  0.00    -0.064 C 
ATOM     27  C   UNL     1      69.432  54.070  24.663  0.00  0.00    +0.066 C 
ENDBRANCH  19  20
ENDBRANCH  18  19
ENDBRANCH  14  15
ENDBRANCH  12  13
TORSDOF 6
ENDMDL
