MODEL 1
REMARK VINA RESULT:      -7.7      0.000      0.000
REMARK  Name = C:\Users\Docking\Desktop\test protocol\1iep_ligandH.pdb
REMARK  8 active torsions:
REMARK  status: ('A' for Active; 'I' for Inactive)
REMARK    1  A    between atoms: _5  and  _11
REMARK    2  A    between atoms: _19  and  _21
REMARK    3  A    between atoms: _22  and  _66
REMARK    4  A    between atoms: _27  and  _30
REMARK    5  A    between atoms: _32  and  _33
REMARK    6  A    between atoms: _38  and  _43
REMARK    7  A    between atoms: _43  and  _46
REMARK    8  A    between atoms: _53  and  _55
REMARK                            x       y       z     vdW  Elec       q    Type
REMARK                         _______ _______ _______ _____ _____    ______ ____
ROOT
ATOM     10  C   UNL     1      69.055  57.006  17.114  0.00  0.00    +0.038 A 
ATOM     11  C   UNL     1      68.350  56.283  16.118  0.00  0.00    +0.047 A 
ATOM     12  C   UNL     1      68.228  54.835  16.184  0.00  0.00    +0.035 A 
ATOM     32  C   UNL     1      68.835  54.155  17.281  0.00  0.00    +0.024 A 
ATOM     33  C   UNL     1      69.557  54.875  18.301  0.00  0.00    +0.007 A 
ATOM     34  C   UNL     1      69.682  56.303  18.240  0.00  0.00    -0.029 A 
ATOM     35  C   UNL     1      70.472  57.022  19.358  0.00  0.00    +0.045 C 
ENDROOT
BRANCH  10   9
ATOM      4  C   UNL     1      71.004  60.992  15.285  0.00  0.00    +0.077 A 
ATOM      5  C   UNL     1      71.951  60.244  14.509  0.00  0.00    +0.048 A 
ATOM      6  C   UNL     1      71.908  58.836  14.615  0.00  0.00    +0.116 A 
ATOM      7  N   UNL     1      70.982  58.232  15.437  0.00  0.00    -0.223 NA
ATOM      8  C   UNL     1      70.084  58.983  16.173  0.00  0.00    +0.220 A 
ATOM      9  N   UNL     1      69.140  58.396  17.001  0.00  0.00    -0.283 N 
ATOM     36  H   UNL     1      68.500  58.985  17.533  0.00  0.00    +0.155 HD
ATOM     37  N   UNL     1      70.106  60.329  16.091  0.00  0.00    -0.214 NA
BRANCH   4   3
ATOM      1  C   UNL     1      70.997  64.736  16.419  0.00  0.00    +0.020 A 
ATOM      2  C   UNL     1      71.084  63.295  16.480  0.00  0.00    +0.013 A 
ATOM      3  C   UNL     1      70.923  62.487  15.278  0.00  0.00    +0.019 A 
ATOM     38  C   UNL     1      70.673  63.174  14.019  0.00  0.00    +0.120 A 
ATOM     39  N   UNL     1      70.592  64.563  13.991  0.00  0.00    -0.263 NA
ATOM     40  C   UNL     1      70.744  65.350  15.142  0.00  0.00    +0.111 A 
ENDBRANCH   4   3
ENDBRANCH  10   9
BRANCH  12  13
ATOM     13  N   UNL     1      67.532  54.046  15.199  0.00  0.00    -0.281 N 
ATOM     14  C   UNL     1      67.891  53.820  13.880  0.00  0.00    +0.248 C 
ATOM     30  O   UNL     1      68.760  54.439  13.285  0.00  0.00    -0.270 OA
ATOM     31  H   UNL     1      66.669  53.600  15.511  0.00  0.00    +0.155 HD
BRANCH  14  15
ATOM     15  C   UNL     1      67.172  52.762  13.107  0.00  0.00    +0.037 A 
ATOM     16  C   UNL     1      67.713  52.238  11.850  0.00  0.00    +0.013 A 
ATOM     17  C   UNL     1      66.991  51.231  11.116  0.00  0.00    +0.005 A 
ATOM     18  C   UNL     1      65.718  50.739  11.637  0.00  0.00    -0.033 A 
ATOM     28  C   UNL     1      65.206  51.272  12.889  0.00  0.00    +0.005 A 
ATOM     29  C   UNL     1      65.911  52.261  13.611  0.00  0.00    +0.013 A 
BRANCH  18  19
ATOM     19  C   UNL     1      64.868  49.680  10.909  0.00  0.00    +0.119 C 
BRANCH  19  20
ATOM     20  N   UNL     1      65.352  48.268  10.952  0.00  0.00    -0.302 NA
ATOM     21  C   UNL     1      66.233  48.000  12.175  0.00  0.00    +0.066 C 
ATOM     22  C   UNL     1      66.712  46.512  12.217  0.00  0.00    -0.064 C 
ATOM     23  N   UNL     1      67.463  46.185  10.925  0.00  0.00    +0.379 N 
ATOM     24  C   UNL     1      67.965  44.804  10.986  0.00  0.00    -0.096 C 
ATOM     25  H   UNL     1      68.346  46.863  10.867  0.00  0.00    -0.082 HD
ATOM     26  C   UNL     1      66.595  46.451   9.704  0.00  0.00    -0.064 C 
ATOM     27  C   UNL     1      66.101  47.925   9.688  0.00  0.00    +0.066 C 
ENDBRANCH  19  20
ENDBRANCH  18  19
ENDBRANCH  14  15
ENDBRANCH  12  13
TORSDOF 6
ENDMDL
MODEL 2
REMARK VINA RESULT:      -7.7      2.203     11.877
REMARK  Name = C:\Users\Docking\Desktop\test protocol\1iep_ligandH.pdb
REMARK  8 active torsions:
REMARK  status: ('A' for Active; 'I' for Inactive)
REMARK    1  A    between atoms: _5  and  _11
REMARK    2  A    between atoms: _19  and  _21
REMARK    3  A    between atoms: _22  and  _66
REMARK    4  A    between atoms: _27  and  _30
REMARK    5  A    between atoms: _32  and  _33
REMARK    6  A    between atoms: _38  and  _43
REMARK    7  A    between atoms: _43  and  _46
REMARK    8  A    between atoms: _53  and  _55
REMARK                            x       y       z     vdW  Elec       q    Type
REMARK                         _______ _______ _______ _____ _____    ______ ____
ROOT
ATOM     10  C   UNL     1      68.012  53.492  17.645  0.00  0.00    +0.038 A 
ATOM     11  C   UNL     1      68.506  54.704  17.100  0.00  0.00    +0.047 A 
ATOM     12  C   UNL     1      68.814  55.843  17.952  0.00  0.00    +0.035 A 
ATOM     32  C   UNL     1      68.608  55.710  19.356  0.00  0.00    +0.024 A 
ATOM     33  C   UNL     1      68.106  54.485  19.927  0.00  0.00    +0.007 A 
ATOM     34  C   UNL     1      67.798  53.360  19.091  0.00  0.00    -0.029 A 
ATOM     35  C   UNL     1      67.256  52.074  19.757  0.00  0.00    +0.045 C 
ENDROOT
BRANCH  10   9
ATOM      4  C   UNL     1      66.559  51.748  13.417  0.00  0.00    +0.077 A 
ATOM      5  C   UNL     1      66.307  53.060  12.895  0.00  0.00    +0.048 A 
ATOM      6  C   UNL     1      66.558  54.157  13.749  0.00  0.00    +0.116 A 
ATOM      7  N   UNL     1      67.026  53.946  15.028  0.00  0.00    -0.223 NA
ATOM      8  C   UNL     1      67.256  52.667  15.501  0.00  0.00    +0.220 A 
ATOM      9  N   UNL     1      67.734  52.431  16.781  0.00  0.00    -0.283 N 
ATOM     36  H   UNL     1      67.883  51.472  17.094  0.00  0.00    +0.155 HD
ATOM     37  N   UNL     1      67.023  51.602  14.705  0.00  0.00    -0.214 NA
BRANCH   4   3
ATOM      1  C   UNL     1      65.206  49.144  10.830  0.00  0.00    +0.020 A 
ATOM      2  C   UNL     1      65.373  50.383  11.554  0.00  0.00    +0.013 A 
ATOM      3  C   UNL     1      66.345  50.489  12.635  0.00  0.00    +0.019 A 
ATOM     38  C   UNL     1      67.140  49.314  12.959  0.00  0.00    +0.120 A 
ATOM     39  N   UNL     1      66.956  48.134  12.246  0.00  0.00    -0.263 NA
ATOM     40  C   UNL     1      66.022  48.019  11.205  0.00  0.00    +0.111 A 
ENDBRANCH   4   3
ENDBRANCH  10   9
BRANCH  12  13
ATOM     13  N   UNL     1      69.310  57.102  17.455  0.00  0.00    -0.281 N 
ATOM     14  C   UNL     1      70.482  57.338  16.754  0.00  0.00    +0.248 C 
ATOM     30  O   UNL     1      71.390  56.529  16.633  0.00  0.00    -0.270 OA
ATOM     31  H   UNL     1      68.728  57.918  17.642  0.00  0.00    +0.155 HD
BRANCH  14  15
ATOM     15  C   UNL     1      70.679  58.670  16.105  0.00  0.00    +0.037 A 
ATOM     16  C   UNL     1      71.679  58.862  15.052  0.00  0.00    +0.013 A 
ATOM     17  C   UNL     1      71.860  60.161  14.455  0.00  0.00    +0.005 A 
ATOM     18  C   UNL     1      71.037  61.279  14.909  0.00  0.00    -0.033 A 
ATOM     28  C   UNL     1      70.049  61.060  15.952  0.00  0.00    +0.005 A 
ATOM     29  C   UNL     1      69.869  59.788  16.540  0.00  0.00    +0.013 A 
BRANCH  18  19
ATOM     19  C   UNL     1      71.177  62.705  14.343  0.00  0.00    +0.119 C 
BRANCH  19  20
ATOM     20  N   UNL     1      71.735  62.842  12.965  0.00  0.00    -0.302 NA
ATOM     21  C   UNL     1      73.066  63.601  12.957  0.00  0.00    +0.066 C 
ATOM     22  C   UNL     1      73.647  63.715  11.510  0.00  0.00    -0.064 C 
ATOM     23  N   UNL     1      72.624  64.405  10.606  0.00  0.00    +0.379 N 
ATOM     24  C   UNL     1      73.190  64.566   9.258  0.00  0.00    -0.096 C 
ATOM     25  H   UNL     1      72.440  65.424  11.019  0.00  0.00    -0.082 HD
ATOM     26  C   UNL     1      71.297  63.658  10.610  0.00  0.00    -0.064 C 
ATOM     27  C   UNL     1      70.743  63.525  12.056  0.00  0.00    +0.066 C 
ENDBRANCH  19  20
ENDBRANCH  18  19
ENDBRANCH  14  15
ENDBRANCH  12  13
TORSDOF 6
ENDMDL
MODEL 3
REMARK VINA RESULT:      -7.7      2.154     12.159
REMARK  Name = C:\Users\Docking\Desktop\test protocol\1iep_ligandH.pdb
REMARK  8 active torsions:
REMARK  status: ('A' for Active; 'I' for Inactive)
REMARK    1  A    between atoms: _5  and  _11
REMARK    2  A    between atoms: _19  and  _21
REMARK    3  A    between atoms: _22  and  _66
REMARK    4  A    between atoms: _27  and  _30
REMARK    5  A    between atoms: _32  and  _33
REMARK    6  A    between atoms: _38  and  _43
REMARK    7  A    between atoms: _43  and  _46
REMARK    8  A    between atoms: _53  and  _55
REMARK                            x       y       z     vdW  Elec       q    Type
REMARK                         _______ _______ _______ _____ _____    ______ ____
ROOT
ATOM     10  C   UNL     1      68.038  53.421  17.707  0.00  0.00    +0.038 A 
ATOM     11  C   UNL     1      68.450  54.660  17.154  0.00  0.00    +0.047 A 
ATOM     12  C   UNL     1      68.732  55.807  18.003  0.00  0.00    +0.035 A 
ATOM     32  C   UNL     1      68.589  55.654  19.413  0.00  0.00    +0.024 A 
ATOM     33  C   UNL     1      68.171  54.402  19.992  0.00  0.00    +0.007 A 
ATOM     34  C   UNL     1      67.888  53.268  19.159  0.00  0.00    -0.029 A 
ATOM     35  C   UNL     1      67.437  51.952  19.834  0.00  0.00    +0.045 C 
ENDROOT
BRANCH  10   9
ATOM      4  C   UNL     1      66.531  51.635  13.514  0.00  0.00    +0.077 A 
ATOM      5  C   UNL     1      66.205  52.938  13.009  0.00  0.00    +0.048 A 
ATOM      6  C   UNL     1      66.434  54.041  13.862  0.00  0.00    +0.116 A 
ATOM      7  N   UNL     1      66.951  53.844  15.125  0.00  0.00    -0.223 NA
ATOM      8  C   UNL     1      67.252  52.574  15.581  0.00  0.00    +0.220 A 
ATOM      9  N   UNL     1      67.780  52.353  16.844  0.00  0.00    -0.283 N 
ATOM     36  H   UNL     1      67.982  51.400  17.147  0.00  0.00    +0.155 HD
ATOM     37  N   UNL     1      67.041  51.504  14.786  0.00  0.00    -0.214 NA
BRANCH   4   3
ATOM      1  C   UNL     1      67.000  48.018  12.102  0.00  0.00    +0.020 A 
ATOM      2  C   UNL     1      67.220  49.214  12.883  0.00  0.00    +0.013 A 
ATOM      3  C   UNL     1      66.349  50.373  12.731  0.00  0.00    +0.019 A 
ATOM     38  C   UNL     1      65.256  50.288  11.774  0.00  0.00    +0.120 A 
ATOM     39  N   UNL     1      65.070  49.124  11.035  0.00  0.00    -0.263 NA
ATOM     40  C   UNL     1      65.902  48.003  11.171  0.00  0.00    +0.111 A 
ENDBRANCH   4   3
ENDBRANCH  10   9
BRANCH  12  13
ATOM     13  N   UNL     1      69.145  57.092  17.498  0.00  0.00    -0.281 N 
ATOM     14  C   UNL     1      68.749  58.346  17.934  0.00  0.00    +0.248 C 
ATOM     30  O   UNL     1      67.810  58.550  18.689  0.00  0.00    -0.270 OA
ATOM     31  H   UNL     1      69.811  57.076  16.725  0.00  0.00    +0.155 HD
BRANCH  14  15
ATOM     15  C   UNL     1      69.494  59.548  17.450  0.00  0.00    +0.037 A 
ATOM     16  C   UNL     1      69.479  60.805  18.202  0.00  0.00    +0.013 A 
ATOM     17  C   UNL     1      70.193  61.954  17.704  0.00  0.00    +0.005 A 
ATOM     18  C   UNL     1      70.929  61.850  16.447  0.00  0.00    -0.033 A 
ATOM     28  C   UNL     1      70.932  60.589  15.724  0.00  0.00    +0.005 A 
ATOM     29  C   UNL     1      70.233  59.461  16.208  0.00  0.00    +0.013 A 
BRANCH  18  19
ATOM     19  C   UNL     1      71.702  63.032  15.830  0.00  0.00    +0.119 C 
BRANCH  19  20
ATOM     20  N   UNL     1      71.695  63.150  14.341  0.00  0.00    -0.302 NA
ATOM     21  C   UNL     1      72.869  63.987  13.826  0.00  0.00    +0.066 C 
ATOM     22  C   UNL     1      72.860  64.081  12.265  0.00  0.00    -0.064 C 
ATOM     23  N   UNL     1      71.528  64.674  11.801  0.00  0.00    +0.379 N 
ATOM     24  C   UNL     1      71.539  64.818  10.338  0.00  0.00    -0.096 C 
ATOM     25  H   UNL     1      71.441  65.694  12.241  0.00  0.00    -0.082 HD
ATOM     26  C   UNL     1      70.355  63.849  12.311  0.00  0.00    -0.064 C 
ATOM     27  C   UNL     1      70.390  63.737  13.861  0.00  0.00    +0.066 C 
ENDBRANCH  19  20
ENDBRANCH  18  19
ENDBRANCH  14  15
ENDBRANCH  12  13
TORSDOF 6
ENDMDL
MODEL 4
REMARK VINA RESULT:      -7.7      3.226     13.824
REMARK  Name = C:\Users\Docking\Desktop\test protocol\1iep_ligandH.pdb
REMARK  8 active torsions:
REMARK  status: ('A' for Active; 'I' for Inactive)
REMARK    1  A    between atoms: _5  and  _11
REMARK    2  A    between atoms: _19  and  _21
REMARK    3  A    between atoms: _22  and  _66
REMARK    4  A    between atoms: _27  and  _30
REMARK    5  A    between atoms: _32  and  _33
REMARK    6  A    between atoms: _38  and  _43
REMARK    7  A    between atoms: _43  and  _46
REMARK    8  A    between atoms: _53  and  _55
REMARK                            x       y       z     vdW  Elec       q    Type
REMARK                         _______ _______ _______ _____ _____    ______ ____
ROOT
ATOM     10  C   UNL     1      71.536  56.479  14.477  0.00  0.00    +0.038 A 
ATOM     11  C   UNL     1      71.362  57.863  14.218  0.00  0.00    +0.047 A 
ATOM     12  C   UNL     1      72.154  58.865  14.914  0.00  0.00    +0.035 A 
ATOM     32  C   UNL     1      73.117  58.422  15.867  0.00  0.00    +0.024 A 
ATOM     33  C   UNL     1      73.306  57.019  16.144  0.00  0.00    +0.007 A 
ATOM     34  C   UNL     1      72.526  56.027  15.462  0.00  0.00    -0.029 A 
ATOM     35  C   UNL     1      72.767  54.538  15.804  0.00  0.00    +0.045 C 
ENDROOT
BRANCH  10   9
ATOM      4  C   UNL     1      67.573  53.817  13.984  0.00  0.00    +0.077 A 
ATOM      5  C   UNL     1      67.038  54.275  15.234  0.00  0.00    +0.048 A 
ATOM      6  C   UNL     1      67.818  55.189  15.977  0.00  0.00    +0.116 A 
ATOM      7  N   UNL     1      69.039  55.609  15.496  0.00  0.00    -0.223 NA
ATOM      8  C   UNL     1      69.526  55.146  14.287  0.00  0.00    +0.220 A 
ATOM      9  N   UNL     1      70.748  55.561  13.780  0.00  0.00    -0.283 N 
ATOM     36  H   UNL     1      71.075  55.191  12.888  0.00  0.00    +0.155 HD
ATOM     37  N   UNL     1      68.801  54.271  13.559  0.00  0.00    -0.214 NA
BRANCH   4   3
ATOM      1  C   UNL     1      65.150  51.059  12.633  0.00  0.00    +0.020 A 
ATOM      2  C   UNL     1      65.800  51.972  13.544  0.00  0.00    +0.013 A 
ATOM      3  C   UNL     1      66.866  52.852  13.083  0.00  0.00    +0.019 A 
ATOM     38  C   UNL     1      67.253  52.784  11.681  0.00  0.00    +0.120 A 
ATOM     39  N   UNL     1      66.610  51.893  10.827  0.00  0.00    -0.263 NA
ATOM     40  C   UNL     1      65.584  51.040  11.261  0.00  0.00    +0.111 A 
ENDBRANCH   4   3
ENDBRANCH  10   9
BRANCH  12  13
ATOM     13  N   UNL     1      72.016  60.283  14.698  0.00  0.00    -0.281 N 
ATOM     14  C   UNL     1      71.122  61.154  15.300  0.00  0.00    +0.248 C 
ATOM     30  O   UNL     1      70.157  60.804  15.963  0.00  0.00    -0.270 OA
ATOM     31  H   UNL     1      72.655  60.697  14.018  0.00  0.00    +0.155 HD
BRANCH  14  15
ATOM     15  C   UNL     1      71.320  62.625  15.129  0.00  0.00    +0.037 A 
ATOM     16  C   UNL     1      70.675  63.357  14.035  0.00  0.00    +0.013 A 
ATOM     17  C   UNL     1      70.897  64.773  13.883  0.00  0.00    +0.005 A 
ATOM     18  C   UNL     1      71.767  65.467  14.829  0.00  0.00    -0.033 A 
ATOM     28  C   UNL     1      72.390  64.718  15.908  0.00  0.00    +0.005 A 
ATOM     29  C   UNL     1      72.176  63.330  16.059  0.00  0.00    +0.013 A 
BRANCH  18  19
ATOM     19  C   UNL     1      72.077  66.973  14.730  0.00  0.00    +0.119 C 
BRANCH  19  20
ATOM     20  N   UNL     1      73.476  67.404  15.027  0.00  0.00    -0.302 NA
ATOM     21  C   UNL     1      73.520  68.753  15.749  0.00  0.00    +0.066 C 
ATOM     22  C   UNL     1      74.990  69.178  16.071  0.00  0.00    -0.064 C 
ATOM     23  N   UNL     1      75.799  69.231  14.774  0.00  0.00    +0.379 N 
ATOM     24  C   UNL     1      77.166  69.687  15.067  0.00  0.00    -0.096 C 
ATOM     25  H   UNL     1      75.324  69.991  14.110  0.00  0.00    -0.082 HD
ATOM     26  C   UNL     1      75.758  67.894  14.048  0.00  0.00    -0.064 C 
ATOM     27  C   UNL     1      74.291  67.467  13.759  0.00  0.00    +0.066 C 
ENDBRANCH  19  20
ENDBRANCH  18  19
ENDBRANCH  14  15
ENDBRANCH  12  13
TORSDOF 6
ENDMDL
MODEL 5
REMARK VINA RESULT:      -7.6      5.720     12.874
REMARK  Name = C:\Users\Docking\Desktop\test protocol\1iep_ligandH.pdb
REMARK  8 active torsions:
REMARK  status: ('A' for Active; 'I' for Inactive)
REMARK    1  A    between atoms: _5  and  _11
REMARK    2  A    between atoms: _19  and  _21
REMARK    3  A    between atoms: _22  and  _66
REMARK    4  A    between atoms: _27  and  _30
REMARK    5  A    between atoms: _32  and  _33
REMARK    6  A    between atoms: _38  and  _43
REMARK    7  A    between atoms: _43  and  _46
REMARK    8  A    between atoms: _53  and  _55
REMARK                            x       y       z     vdW  Elec       q    Type
REMARK                         _______ _______ _______ _____ _____    ______ ____
ROOT
ATOM     10  C   UNL     1      68.053  52.667  15.269  0.00  0.00    +0.038 A 
ATOM     11  C   UNL     1      67.663  52.666  16.632  0.00  0.00    +0.047 A 
ATOM     12  C   UNL     1      67.726  53.879  17.433  0.00  0.00    +0.035 A 
ATOM     32  C   UNL     1      68.187  55.076  16.812  0.00  0.00    +0.024 A 
ATOM     33  C   UNL     1      68.588  55.094  15.427  0.00  0.00    +0.007 A 
ATOM     34  C   UNL     1      68.531  53.901  14.633  0.00  0.00    -0.029 A 
ATOM     35  C   UNL     1      68.979  53.978  13.155  0.00  0.00    +0.045 C 
ENDROOT
BRANCH  10   9
ATOM      4  C   UNL     1      65.919  49.788  12.075  0.00  0.00    +0.077 A 
ATOM      5  C   UNL     1      64.861  50.728  11.846  0.00  0.00    +0.048 A 
ATOM      6  C   UNL     1      64.898  51.938  12.575  0.00  0.00    +0.116 A 
ATOM      7  N   UNL     1      65.923  52.179  13.464  0.00  0.00    -0.223 NA
ATOM      8  C   UNL     1      66.928  51.250  13.663  0.00  0.00    +0.220 A 
ATOM      9  N   UNL     1      67.972  51.474  14.546  0.00  0.00    -0.283 N 
ATOM     36  H   UNL     1      68.690  50.761  14.670  0.00  0.00    +0.155 HD
ATOM     37  N   UNL     1      66.914  50.086  12.980  0.00  0.00    -0.214 NA
BRANCH   4   3
ATOM      1  C   UNL     1      66.544  45.999  11.329  0.00  0.00    +0.020 A 
ATOM      2  C   UNL     1      66.465  47.250  12.047  0.00  0.00    +0.013 A 
ATOM      3  C   UNL     1      66.021  48.467  11.378  0.00  0.00    +0.019 A 
ATOM     38  C   UNL     1      65.661  48.382   9.971  0.00  0.00    +0.120 A 
ATOM     39  N   UNL     1      65.749  47.164   9.304  0.00  0.00    -0.263 NA
ATOM     40  C   UNL     1      66.177  45.987   9.937  0.00  0.00    +0.111 A 
ENDBRANCH   4   3
ENDBRANCH  10   9
BRANCH  12  13
ATOM     13  N   UNL     1      67.351  53.937  18.825  0.00  0.00    -0.281 N 
ATOM     14  C   UNL     1      67.606  53.002  19.815  0.00  0.00    +0.248 C 
ATOM     30  O   UNL     1      68.011  51.868  19.607  0.00  0.00    -0.270 OA
ATOM     31  H   UNL     1      66.836  54.768  19.115  0.00  0.00    +0.155 HD
BRANCH  14  15
ATOM     15  C   UNL     1      67.361  53.376  21.241  0.00  0.00    +0.037 A 
ATOM     16  C   UNL     1      68.237  52.896  22.313  0.00  0.00    +0.013 A 
ATOM     17  C   UNL     1      67.969  53.258  23.683  0.00  0.00    +0.005 A 
ATOM     18  C   UNL     1      66.819  54.106  23.987  0.00  0.00    -0.033 A 
ATOM     28  C   UNL     1      65.969  54.572  22.903  0.00  0.00    +0.005 A 
ATOM     29  C   UNL     1      66.229  54.219  21.560  0.00  0.00    +0.013 A 
BRANCH  18  19
ATOM     19  C   UNL     1      66.445  54.525  25.421  0.00  0.00    +0.119 C 
BRANCH  19  20
ATOM     20  N   UNL     1      64.997  54.489  25.788  0.00  0.00    -0.302 NA
ATOM     21  C   UNL     1      64.615  55.634  26.730  0.00  0.00    +0.066 C 
ATOM     22  C   UNL     1      63.093  55.594  27.086  0.00  0.00    -0.064 C 
ATOM     23  N   UNL     1      62.754  54.241  27.713  0.00  0.00    +0.379 N 
ATOM     24  C   UNL     1      61.336  54.222  28.102  0.00  0.00    -0.096 C 
ATOM     25  H   UNL     1      63.361  54.137  28.642  0.00  0.00    -0.082 HD
ATOM     26  C   UNL     1      63.133  53.097  26.784  0.00  0.00    -0.064 C 
ATOM     27  C   UNL     1      64.641  53.162  26.413  0.00  0.00    +0.066 C 
ENDBRANCH  19  20
ENDBRANCH  18  19
ENDBRANCH  14  15
ENDBRANCH  12  13
TORSDOF 6
ENDMDL
