MODEL 1
REMARK VINA RESULT:      -7.9      0.000      0.000
REMARK  Name = C:\Users\Docking\Desktop\test protocol\1iep_ligandH.pdb
REMARK  8 active torsions:
REMARK  status: ('A' for Active; 'I' for Inactive)
REMARK    1  A    between atoms: _5  and  _11
REMARK    2  A    between atoms: _19  and  _21
REMARK    3  A    between atoms: _22  and  _66
REMARK    4  A    between atoms: _27  and  _30
REMARK    5  A    between atoms: _32  and  _33
REMARK    6  A    between atoms: _38  and  _43
REMARK    7  A    between atoms: _43  and  _46
REMARK    8  A    between atoms: _53  and  _55
REMARK                            x       y       z     vdW  Elec       q    Type
REMARK                         _______ _______ _______ _____ _____    ______ ____
ROOT
ATOM     10  C   UNL     1      68.547  52.483  15.999  0.00  0.00    +0.038 A 
ATOM     11  C   UNL     1      68.136  52.452  17.356  0.00  0.00    +0.047 A 
ATOM     12  C   UNL     1      68.075  53.668  18.152  0.00  0.00    +0.035 A 
ATOM     32  C   UNL     1      68.437  54.900  17.533  0.00  0.00    +0.024 A 
ATOM     33  C   UNL     1      68.858  54.950  16.155  0.00  0.00    +0.007 A 
ATOM     34  C   UNL     1      68.923  53.753  15.365  0.00  0.00    -0.029 A 
ATOM     35  C   UNL     1      69.388  53.865  13.895  0.00  0.00    +0.045 C 
ENDROOT
BRANCH  10   9
ATOM      4  C   UNL     1      66.654  49.332  12.914  0.00  0.00    +0.077 A 
ATOM      5  C   UNL     1      65.472  50.125  12.737  0.00  0.00    +0.048 A 
ATOM      6  C   UNL     1      65.387  51.334  13.463  0.00  0.00    +0.116 A 
ATOM      7  N   UNL     1      66.414  51.711  14.301  0.00  0.00    -0.223 NA
ATOM      8  C   UNL     1      67.539  50.922  14.450  0.00  0.00    +0.220 A 
ATOM      9  N   UNL     1      68.588  51.286  15.282  0.00  0.00    -0.283 N 
ATOM     36  H   UNL     1      69.397  50.672  15.370  0.00  0.00    +0.155 HD
ATOM     37  N   UNL     1      67.643  49.762  13.769  0.00  0.00    -0.214 NA
BRANCH   4   3
ATOM      1  C   UNL     1      67.711  46.660  10.260  0.00  0.00    +0.020 A 
ATOM      2  C   UNL     1      67.502  47.942  10.892  0.00  0.00    +0.013 A 
ATOM      3  C   UNL     1      66.892  48.030  12.213  0.00  0.00    +0.019 A 
ATOM     38  C   UNL     1      66.501  46.793  12.871  0.00  0.00    +0.120 A 
ATOM     39  N   UNL     1      66.713  45.573  12.237  0.00  0.00    -0.263 NA
ATOM     40  C   UNL     1      67.298  45.475  10.966  0.00  0.00    +0.111 A 
ENDBRANCH   4   3
ENDBRANCH  10   9
BRANCH  12  13
ATOM     13  N   UNL     1      67.672  53.697  19.536  0.00  0.00    -0.281 N 
ATOM     14  C   UNL     1      68.174  52.943  20.585  0.00  0.00    +0.248 C 
ATOM     30  O   UNL     1      68.902  51.971  20.450  0.00  0.00    -0.270 OA
ATOM     31  H   UNL     1      66.927  54.353  19.772  0.00  0.00    +0.155 HD
BRANCH  14  15
ATOM     15  C   UNL     1      67.801  53.314  21.984  0.00  0.00    +0.037 A 
ATOM     16  C   UNL     1      68.616  52.890  23.125  0.00  0.00    +0.013 A 
ATOM     17  C   UNL     1      68.224  53.247  24.466  0.00  0.00    +0.005 A 
ATOM     18  C   UNL     1      67.011  54.034  24.672  0.00  0.00    -0.033 A 
ATOM     28  C   UNL     1      66.223  54.445  23.521  0.00  0.00    +0.005 A 
ATOM     29  C   UNL     1      66.604  54.097  22.206  0.00  0.00    +0.013 A 
BRANCH  18  19
ATOM     19  C   UNL     1      66.505  54.442  26.068  0.00  0.00    +0.119 C 
BRANCH  19  20
ATOM     20  N   UNL     1      65.120  54.993  26.160  0.00  0.00    -0.302 NA
ATOM     21  C   UNL     1      65.115  56.521  26.259  0.00  0.00    +0.066 C 
ATOM     22  C   UNL     1      63.658  57.082  26.331  0.00  0.00    -0.064 C 
ATOM     23  N   UNL     1      62.934  56.460  27.527  0.00  0.00    +0.379 N 
ATOM     24  C   UNL     1      61.583  57.029  27.632  0.00  0.00    -0.096 C 
ATOM     25  H   UNL     1      63.494  56.746  28.447  0.00  0.00    -0.082 HD
ATOM     26  C   UNL     1      62.937  54.940  27.438  0.00  0.00    -0.064 C 
ATOM     27  C   UNL     1      64.389  54.395  27.337  0.00  0.00    +0.066 C 
ENDBRANCH  19  20
ENDBRANCH  18  19
ENDBRANCH  14  15
ENDBRANCH  12  13
TORSDOF 6
ENDMDL
MODEL 2
REMARK VINA RESULT:      -7.8     22.519     26.133
REMARK  Name = C:\Users\Docking\Desktop\test protocol\1iep_ligandH.pdb
REMARK  8 active torsions:
REMARK  status: ('A' for Active; 'I' for Inactive)
REMARK    1  A    between atoms: _5  and  _11
REMARK    2  A    between atoms: _19  and  _21
REMARK    3  A    between atoms: _22  and  _66
REMARK    4  A    between atoms: _27  and  _30
REMARK    5  A    between atoms: _32  and  _33
REMARK    6  A    between atoms: _38  and  _43
REMARK    7  A    between atoms: _43  and  _46
REMARK    8  A    between atoms: _53  and  _55
REMARK                            x       y       z     vdW  Elec       q    Type
REMARK                         _______ _______ _______ _____ _____    ______ ____
ROOT
ATOM     10  C   UNL     1      76.476  69.744   5.102  0.00  0.00    +0.038 A 
ATOM     11  C   UNL     1      75.085  69.946   4.911  0.00  0.00    +0.047 A 
ATOM     12  C   UNL     1      74.179  68.822   4.735  0.00  0.00    +0.035 A 
ATOM     32  C   UNL     1      74.723  67.505   4.761  0.00  0.00    +0.024 A 
ATOM     33  C   UNL     1      76.134  67.281   4.953  0.00  0.00    +0.007 A 
ATOM     34  C   UNL     1      77.034  68.386   5.125  0.00  0.00    -0.029 A 
ATOM     35  C   UNL     1      78.538  68.088   5.321  0.00  0.00    +0.045 C 
ENDROOT
BRANCH  10   9
ATOM      4  C   UNL     1      78.709  72.990   7.843  0.00  0.00    +0.077 A 
ATOM      5  C   UNL     1      78.165  72.433   9.049  0.00  0.00    +0.048 A 
ATOM      6  C   UNL     1      77.310  71.316   8.919  0.00  0.00    +0.116 A 
ATOM      7  N   UNL     1      77.026  70.802   7.672  0.00  0.00    -0.223 NA
ATOM      8  C   UNL     1      77.566  71.364   6.530  0.00  0.00    +0.220 A 
ATOM      9  N   UNL     1      77.301  70.859   5.266  0.00  0.00    -0.283 N 
ATOM     36  H   UNL     1      77.712  71.307   4.448  0.00  0.00    +0.155 HD
ATOM     37  N   UNL     1      78.384  72.433   6.627  0.00  0.00    -0.214 NA
BRANCH   4   3
ATOM      1  C   UNL     1      81.772  75.348   8.441  0.00  0.00    +0.020 A 
ATOM      2  C   UNL     1      80.919  74.183   8.499  0.00  0.00    +0.013 A 
ATOM      3  C   UNL     1      79.631  74.169   7.817  0.00  0.00    +0.019 A 
ATOM     38  C   UNL     1      79.233  75.358   7.078  0.00  0.00    +0.120 A 
ATOM     39  N   UNL     1      80.076  76.465   7.042  0.00  0.00    -0.263 NA
ATOM     40  C   UNL     1      81.316  76.491   7.696  0.00  0.00    +0.111 A 
ENDBRANCH   4   3
ENDBRANCH  10   9
BRANCH  12  13
ATOM     13  N   UNL     1      72.759  68.966   4.529  0.00  0.00    -0.281 N 
ATOM     14  C   UNL     1      72.026  68.649   3.397  0.00  0.00    +0.248 C 
ATOM     30  O   UNL     1      72.515  68.391   2.307  0.00  0.00    -0.270 OA
ATOM     31  H   UNL     1      72.230  69.348   5.313  0.00  0.00    +0.155 HD
BRANCH  14  15
ATOM     15  C   UNL     1      70.534  68.630   3.484  0.00  0.00    +0.037 A 
ATOM     16  C   UNL     1      69.842  67.800   4.474  0.00  0.00    +0.013 A 
ATOM     17  C   UNL     1      68.401  67.787   4.526  0.00  0.00    +0.005 A 
ATOM     18  C   UNL     1      67.643  68.609   3.585  0.00  0.00    -0.033 A 
ATOM     28  C   UNL     1      68.356  69.426   2.617  0.00  0.00    +0.005 A 
ATOM     29  C   UNL     1      69.768  69.441   2.563  0.00  0.00    +0.013 A 
BRANCH  18  19
ATOM     19  C   UNL     1      66.104  68.641   3.554  0.00  0.00    +0.119 C 
BRANCH  19  20
ATOM     20  N   UNL     1      65.449  68.755   2.217  0.00  0.00    -0.302 NA
ATOM     21  C   UNL     1      63.924  68.659   2.314  0.00  0.00    +0.066 C 
ATOM     22  C   UNL     1      63.253  68.803   0.909  0.00  0.00    -0.064 C 
ATOM     23  N   UNL     1      63.805  67.728  -0.029  0.00  0.00    +0.379 N 
ATOM     24  C   UNL     1      63.134  67.824  -1.333  0.00  0.00    -0.096 C 
ATOM     25  H   UNL     1      63.551  66.735   0.410  0.00  0.00    -0.082 HD
ATOM     26  C   UNL     1      65.321  67.814  -0.129  0.00  0.00    -0.064 C 
ATOM     27  C   UNL     1      65.976  67.700   1.276  0.00  0.00    +0.066 C 
ENDBRANCH  19  20
ENDBRANCH  18  19
ENDBRANCH  14  15
ENDBRANCH  12  13
TORSDOF 6
ENDMDL
MODEL 3
REMARK VINA RESULT:      -7.7      1.166      1.718
REMARK  Name = C:\Users\Docking\Desktop\test protocol\1iep_ligandH.pdb
REMARK  8 active torsions:
REMARK  status: ('A' for Active; 'I' for Inactive)
REMARK    1  A    between atoms: _5  and  _11
REMARK    2  A    between atoms: _19  and  _21
REMARK    3  A    between atoms: _22  and  _66
REMARK    4  A    between atoms: _27  and  _30
REMARK    5  A    between atoms: _32  and  _33
REMARK    6  A    between atoms: _38  and  _43
REMARK    7  A    between atoms: _43  and  _46
REMARK    8  A    between atoms: _53  and  _55
REMARK                            x       y       z     vdW  Elec       q    Type
REMARK                         _______ _______ _______ _____ _____    ______ ____
ROOT
ATOM     10  C   UNL     1      68.734  52.697  16.029  0.00  0.00    +0.038 A 
ATOM     11  C   UNL     1      68.286  52.565  17.369  0.00  0.00    +0.047 A 
ATOM     12  C   UNL     1      68.126  53.728  18.227  0.00  0.00    +0.035 A 
ATOM     32  C   UNL     1      68.427  55.012  17.687  0.00  0.00    +0.024 A 
ATOM     33  C   UNL     1      68.884  55.165  16.328  0.00  0.00    +0.007 A 
ATOM     34  C   UNL     1      69.047  54.021  15.478  0.00  0.00    -0.029 A 
ATOM     35  C   UNL     1      69.546  54.243  14.031  0.00  0.00    +0.045 C 
ENDROOT
BRANCH  10   9
ATOM      4  C   UNL     1      67.041  49.488  12.887  0.00  0.00    +0.077 A 
ATOM      5  C   UNL     1      65.767  50.144  12.813  0.00  0.00    +0.048 A 
ATOM      6  C   UNL     1      65.586  51.301  13.604  0.00  0.00    +0.116 A 
ATOM      7  N   UNL     1      66.609  51.758  14.406  0.00  0.00    -0.223 NA
ATOM      8  C   UNL     1      67.825  51.100  14.456  0.00  0.00    +0.220 A 
ATOM      9  N   UNL     1      68.870  51.546  15.250  0.00  0.00    -0.283 N 
ATOM     36  H   UNL     1      69.749  51.028  15.265  0.00  0.00    +0.155 HD
ATOM     37  N   UNL     1      68.022  49.992  13.711  0.00  0.00    -0.214 NA
BRANCH   4   3
ATOM      1  C   UNL     1      66.838  45.985  11.158  0.00  0.00    +0.020 A 
ATOM      2  C   UNL     1      66.455  47.151  11.920  0.00  0.00    +0.013 A 
ATOM      3  C   UNL     1      67.386  48.256  12.109  0.00  0.00    +0.019 A 
ATOM     38  C   UNL     1      68.708  48.149  11.509  0.00  0.00    +0.120 A 
ATOM     39  N   UNL     1      69.049  47.013  10.782  0.00  0.00    -0.263 NA
ATOM     40  C   UNL     1      68.162  45.943  10.595  0.00  0.00    +0.111 A 
ENDBRANCH   4   3
ENDBRANCH  10   9
BRANCH  12  13
ATOM     13  N   UNL     1      67.683  53.654  19.597  0.00  0.00    -0.281 N 
ATOM     14  C   UNL     1      68.381  53.175  20.693  0.00  0.00    +0.248 C 
ATOM     30  O   UNL     1      69.420  52.535  20.625  0.00  0.00    -0.270 OA
ATOM     31  H   UNL     1      66.740  53.998  19.781  0.00  0.00    +0.155 HD
BRANCH  14  15
ATOM     15  C   UNL     1      67.839  53.430  22.063  0.00  0.00    +0.037 A 
ATOM     16  C   UNL     1      66.576  54.145  22.259  0.00  0.00    +0.013 A 
ATOM     17  C   UNL     1      66.084  54.393  23.591  0.00  0.00    +0.005 A 
ATOM     18  C   UNL     1      66.857  53.924  24.738  0.00  0.00    -0.033 A 
ATOM     28  C   UNL     1      68.105  53.212  24.515  0.00  0.00    +0.005 A 
ATOM     29  C   UNL     1      68.590  52.968  23.211  0.00  0.00    +0.013 A 
BRANCH  18  19
ATOM     19  C   UNL     1      66.420  54.162  26.196  0.00  0.00    +0.119 C 
BRANCH  19  20
ATOM     20  N   UNL     1      64.983  53.926  26.526  0.00  0.00    -0.302 NA
ATOM     21  C   UNL     1      64.492  54.848  27.646  0.00  0.00    +0.066 C 
ATOM     22  C   UNL     1      62.980  54.603  27.963  0.00  0.00    -0.064 C 
ATOM     23  N   UNL     1      62.772  53.135  28.338  0.00  0.00    +0.379 N 
ATOM     24  C   UNL     1      61.362  52.915  28.693  0.00  0.00    -0.096 C 
ATOM     25  H   UNL     1      63.385  52.928  29.246  0.00  0.00    -0.082 HD
ATOM     26  C   UNL     1      63.260  52.212  27.231  0.00  0.00    -0.064 C 
ATOM     27  C   UNL     1      64.755  52.483  26.903  0.00  0.00    +0.066 C 
ENDBRANCH  19  20
ENDBRANCH  18  19
ENDBRANCH  14  15
ENDBRANCH  12  13
TORSDOF 6
ENDMDL
MODEL 4
REMARK VINA RESULT:      -7.7      6.023      9.680
REMARK  Name = C:\Users\Docking\Desktop\test protocol\1iep_ligandH.pdb
REMARK  8 active torsions:
REMARK  status: ('A' for Active; 'I' for Inactive)
REMARK    1  A    between atoms: _5  and  _11
REMARK    2  A    between atoms: _19  and  _21
REMARK    3  A    between atoms: _22  and  _66
REMARK    4  A    between atoms: _27  and  _30
REMARK    5  A    between atoms: _32  and  _33
REMARK    6  A    between atoms: _38  and  _43
REMARK    7  A    between atoms: _43  and  _46
REMARK    8  A    between atoms: _53  and  _55
REMARK                            x       y       z     vdW  Elec       q    Type
REMARK                         _______ _______ _______ _____ _____    ______ ____
ROOT
ATOM     10  C   UNL     1      68.453  53.117  17.447  0.00  0.00    +0.038 A 
ATOM     11  C   UNL     1      68.935  54.326  16.884  0.00  0.00    +0.047 A 
ATOM     12  C   UNL     1      68.882  55.576  17.626  0.00  0.00    +0.035 A 
ATOM     32  C   UNL     1      68.332  55.558  18.941  0.00  0.00    +0.024 A 
ATOM     33  C   UNL     1      67.836  54.338  19.529  0.00  0.00    +0.007 A 
ATOM     34  C   UNL     1      67.884  53.103  18.801  0.00  0.00    -0.029 A 
ATOM     35  C   UNL     1      67.332  51.827  19.478  0.00  0.00    +0.045 C 
ENDROOT
BRANCH  10   9
ATOM      4  C   UNL     1      67.256  50.454  13.638  0.00  0.00    +0.077 A 
ATOM      5  C   UNL     1      66.384  51.472  13.126  0.00  0.00    +0.048 A 
ATOM      6  C   UNL     1      66.267  52.663  13.877  0.00  0.00    +0.116 A 
ATOM      7  N   UNL     1      66.973  52.814  15.050  0.00  0.00    -0.223 NA
ATOM      8  C   UNL     1      67.803  51.812  15.517  0.00  0.00    +0.220 A 
ATOM      9  N   UNL     1      68.529  51.946  16.691  0.00  0.00    -0.283 N 
ATOM     36  H   UNL     1      69.125  51.180  17.005  0.00  0.00    +0.155 HD
ATOM     37  N   UNL     1      67.932  50.664  14.819  0.00  0.00    -0.214 NA
BRANCH   4   3
ATOM      1  C   UNL     1      67.913  46.655  12.980  0.00  0.00    +0.020 A 
ATOM      2  C   UNL     1      67.693  47.896  13.686  0.00  0.00    +0.013 A 
ATOM      3  C   UNL     1      67.488  49.141  12.957  0.00  0.00    +0.019 A 
ATOM     38  C   UNL     1      67.510  49.096  11.502  0.00  0.00    +0.120 A 
ATOM     39  N   UNL     1      67.726  47.886  10.850  0.00  0.00    -0.263 NA
ATOM     40  C   UNL     1      67.926  46.681  11.541  0.00  0.00    +0.111 A 
ENDBRANCH   4   3
ENDBRANCH  10   9
BRANCH  12  13
ATOM     13  N   UNL     1      69.349  56.836  17.102  0.00  0.00    -0.281 N 
ATOM     14  C   UNL     1      70.649  57.312  17.065  0.00  0.00    +0.248 C 
ATOM     30  O   UNL     1      71.586  56.815  17.672  0.00  0.00    -0.270 OA
ATOM     31  H   UNL     1      68.634  57.450  16.713  0.00  0.00    +0.155 HD
BRANCH  14  15
ATOM     15  C   UNL     1      70.950  58.525  16.245  0.00  0.00    +0.037 A 
ATOM     16  C   UNL     1      70.265  59.797  16.490  0.00  0.00    +0.013 A 
ATOM     17  C   UNL     1      70.561  60.947  15.673  0.00  0.00    +0.005 A 
ATOM     18  C   UNL     1      71.549  60.831  14.603  0.00  0.00    -0.033 A 
ATOM     28  C   UNL     1      72.218  59.558  14.385  0.00  0.00    +0.005 A 
ATOM     29  C   UNL     1      71.929  58.429  15.183  0.00  0.00    +0.013 A 
BRANCH  18  19
ATOM     19  C   UNL     1      71.913  62.000  13.669  0.00  0.00    +0.119 C 
BRANCH  19  20
ATOM     20  N   UNL     1      72.289  63.295  14.310  0.00  0.00    -0.302 NA
ATOM     21  C   UNL     1      71.092  64.242  14.437  0.00  0.00    +0.066 C 
ATOM     22  C   UNL     1      71.499  65.584  15.130  0.00  0.00    -0.064 C 
ATOM     23  N   UNL     1      72.629  66.242  14.336  0.00  0.00    +0.379 N 
ATOM     24  C   UNL     1      72.974  67.532  14.952  0.00  0.00    -0.096 C 
ATOM     25  H   UNL     1      72.245  66.449  13.310  0.00  0.00    -0.082 HD
ATOM     26  C   UNL     1      73.822  65.306  14.203  0.00  0.00    -0.064 C 
ATOM     27  C   UNL     1      73.401  63.965  13.540  0.00  0.00    +0.066 C 
ENDBRANCH  19  20
ENDBRANCH  18  19
ENDBRANCH  14  15
ENDBRANCH  12  13
TORSDOF 6
ENDMDL
MODEL 5
REMARK VINA RESULT:      -7.7      5.803     10.252
REMARK  Name = C:\Users\Docking\Desktop\test protocol\1iep_ligandH.pdb
REMARK  8 active torsions:
REMARK  status: ('A' for Active; 'I' for Inactive)
REMARK    1  A    between atoms: _5  and  _11
REMARK    2  A    between atoms: _19  and  _21
REMARK    3  A    between atoms: _22  and  _66
REMARK    4  A    between atoms: _27  and  _30
REMARK    5  A    between atoms: _32  and  _33
REMARK    6  A    between atoms: _38  and  _43
REMARK    7  A    between atoms: _43  and  _46
REMARK    8  A    between atoms: _53  and  _55
REMARK                            x       y       z     vdW  Elec       q    Type
REMARK                         _______ _______ _______ _____ _____    ______ ____
ROOT
ATOM     10  C   UNL     1      68.490  53.100  17.419  0.00  0.00    +0.038 A 
ATOM     11  C   UNL     1      68.965  54.328  16.891  0.00  0.00    +0.047 A 
ATOM     12  C   UNL     1      68.953  55.544  17.688  0.00  0.00    +0.035 A 
ATOM     32  C   UNL     1      68.452  55.474  19.021  0.00  0.00    +0.024 A 
ATOM     33  C   UNL     1      67.964  54.235  19.573  0.00  0.00    +0.007 A 
ATOM     34  C   UNL     1      67.971  53.032  18.790  0.00  0.00    -0.029 A 
ATOM     35  C   UNL     1      67.430  51.733  19.431  0.00  0.00    +0.045 C 
ENDROOT
BRANCH  10   9
ATOM      4  C   UNL     1      67.207  50.660  13.490  0.00  0.00    +0.077 A 
ATOM      5  C   UNL     1      66.375  51.732  13.024  0.00  0.00    +0.048 A 
ATOM      6  C   UNL     1      66.299  52.891  13.828  0.00  0.00    +0.116 A 
ATOM      7  N   UNL     1      67.007  52.962  15.008  0.00  0.00    -0.223 NA
ATOM      8  C   UNL     1      67.799  51.910  15.430  0.00  0.00    +0.220 A 
ATOM      9  N   UNL     1      68.525  51.962  16.609  0.00  0.00    -0.283 N 
ATOM     36  H   UNL     1      69.092  51.162  16.889  0.00  0.00    +0.155 HD
ATOM     37  N   UNL     1      67.887  50.791  14.680  0.00  0.00    -0.214 NA
BRANCH   4   3
ATOM      1  C   UNL     1      66.565  47.154  11.879  0.00  0.00    +0.020 A 
ATOM      2  C   UNL     1      66.333  48.382  12.605  0.00  0.00    +0.013 A 
ATOM      3  C   UNL     1      67.393  49.372  12.749  0.00  0.00    +0.019 A 
ATOM     38  C   UNL     1      68.685  49.087  12.143  0.00  0.00    +0.120 A 
ATOM     39  N   UNL     1      68.879  47.895  11.452  0.00  0.00    -0.263 NA
ATOM     40  C   UNL     1      67.867  46.934  11.307  0.00  0.00    +0.111 A 
ENDBRANCH   4   3
ENDBRANCH  10   9
BRANCH  12  13
ATOM     13  N   UNL     1      69.415  56.821  17.204  0.00  0.00    -0.281 N 
ATOM     14  C   UNL     1      70.716  57.206  16.923  0.00  0.00    +0.248 C 
ATOM     30  O   UNL     1      71.709  56.574  17.252  0.00  0.00    -0.270 OA
ATOM     31  H   UNL     1      68.695  57.528  17.048  0.00  0.00    +0.155 HD
BRANCH  14  15
ATOM     15  C   UNL     1      70.947  58.484  16.184  0.00  0.00    +0.037 A 
ATOM     16  C   UNL     1      71.903  58.558  15.076  0.00  0.00    +0.013 A 
ATOM     17  C   UNL     1      72.120  59.807  14.390  0.00  0.00    +0.005 A 
ATOM     18  C   UNL     1      71.378  60.993  14.811  0.00  0.00    -0.033 A 
ATOM     28  C   UNL     1      70.432  60.890  15.910  0.00  0.00    +0.005 A 
ATOM     29  C   UNL     1      70.218  59.668  16.585  0.00  0.00    +0.013 A 
BRANCH  18  19
ATOM     19  C   UNL     1      71.561  62.373  14.151  0.00  0.00    +0.119 C 
BRANCH  19  20
ATOM     20  N   UNL     1      72.120  62.399  12.766  0.00  0.00    -0.302 NA
ATOM     21  C   UNL     1      73.396  63.241  12.677  0.00  0.00    +0.066 C 
ATOM     22  C   UNL     1      73.980  63.239  11.227  0.00  0.00    -0.064 C 
ATOM     23  N   UNL     1      72.920  63.757  10.253  0.00  0.00    +0.379 N 
ATOM     24  C   UNL     1      73.485  63.812   8.897  0.00  0.00    -0.096 C 
ATOM     25  H   UNL     1      72.665  64.800  10.555  0.00  0.00    -0.082 HD
ATOM     26  C   UNL     1      71.647  62.928  10.337  0.00  0.00    -0.064 C 
ATOM     27  C   UNL     1      71.092  62.912  11.788  0.00  0.00    +0.066 C 
ENDBRANCH  19  20
ENDBRANCH  18  19
ENDBRANCH  14  15
ENDBRANCH  12  13
TORSDOF 6
ENDMDL
