MODEL 1
REMARK VINA RESULT:      -8.5      0.000      0.000
REMARK  Name = C:\Users\Docking\Desktop\test protocol\1iep_ligandH.pdb
REMARK  8 active torsions:
REMARK  status: ('A' for Active; 'I' for Inactive)
REMARK    1  A    between atoms: _5  and  _11
REMARK    2  A    between atoms: _19  and  _21
REMARK    3  A    between atoms: _22  and  _66
REMARK    4  A    between atoms: _27  and  _30
REMARK    5  A    between atoms: _32  and  _33
REMARK    6  A    between atoms: _38  and  _43
REMARK    7  A    between atoms: _43  and  _46
REMARK    8  A    between atoms: _53  and  _55
REMARK                            x       y       z     vdW  Elec       q    Type
REMARK                         _______ _______ _______ _____ _____    ______ ____
ROOT
ATOM     10  C   UNL     1      66.255  41.992 109.900  0.00  0.00    +0.038 A 
ATOM     11  C   UNL     1      66.304  40.647 109.451  0.00  0.00    +0.047 A 
ATOM     12  C   UNL     1      66.693  39.568 110.345  0.00  0.00    +0.035 A 
ATOM     32  C   UNL     1      67.025  39.894 111.692  0.00  0.00    +0.024 A 
ATOM     33  C   UNL     1      66.983  41.255 112.166  0.00  0.00    +0.007 A 
ATOM     34  C   UNL     1      66.601  42.324 111.288  0.00  0.00    -0.029 A 
ATOM     35  C   UNL     1      66.579  43.765 111.848  0.00  0.00    +0.045 C 
ENDROOT
BRANCH  10   9
ATOM      4  C   UNL     1      67.277  45.500 106.788  0.00  0.00    +0.077 A 
ATOM      5  C   UNL     1      68.689  45.353 106.995  0.00  0.00    +0.048 A 
ATOM      6  C   UNL     1      69.111  44.368 107.917  0.00  0.00    +0.116 A 
ATOM      7  N   UNL     1      68.181  43.593 108.575  0.00  0.00    -0.223 NA
ATOM      8  C   UNL     1      66.826  43.762 108.353  0.00  0.00    +0.220 A 
ATOM      9  N   UNL     1      65.874  42.988 108.999  0.00  0.00    -0.283 N 
ATOM     36  H   UNL     1      64.884  43.148 108.814  0.00  0.00    +0.155 HD
ATOM     37  N   UNL     1      66.398  44.696 107.480  0.00  0.00    -0.214 NA
BRANCH   4   3
ATOM      1  C   UNL     1      65.507  48.671 105.336  0.00  0.00    +0.020 A 
ATOM      2  C   UNL     1      66.073  47.745 106.289  0.00  0.00    +0.013 A 
ATOM      3  C   UNL     1      66.676  46.494 105.844  0.00  0.00    +0.019 A 
ATOM     38  C   UNL     1      66.690  46.210 104.417  0.00  0.00    +0.120 A 
ATOM     39  N   UNL     1      66.135  47.120 103.523  0.00  0.00    -0.263 NA
ATOM     40  C   UNL     1      65.551  48.326 103.939  0.00  0.00    +0.111 A 
ENDBRANCH   4   3
ENDBRANCH  10   9
BRANCH  12  13
ATOM     13  N   UNL     1      66.768  38.186 109.943  0.00  0.00    -0.281 N 
ATOM     14  C   UNL     1      65.786  37.214 110.046  0.00  0.00    +0.248 C 
ATOM     30  O   UNL     1      64.761  37.335 110.700  0.00  0.00    -0.270 OA
ATOM     31  H   UNL     1      67.653  37.887 109.532  0.00  0.00    +0.155 HD
BRANCH  14  15
ATOM     15  C   UNL     1      65.977  35.915 109.332  0.00  0.00    +0.037 A 
ATOM     16  C   UNL     1      67.269  35.556 108.741  0.00  0.00    +0.013 A 
ATOM     17  C   UNL     1      67.422  34.304 108.043  0.00  0.00    +0.005 A 
ATOM     18  C   UNL     1      66.278  33.401 107.933  0.00  0.00    -0.033 A 
ATOM     28  C   UNL     1      65.010  33.781 108.533  0.00  0.00    +0.005 A 
ATOM     29  C   UNL     1      64.856  35.007 109.217  0.00  0.00    +0.013 A 
BRANCH  18  19
ATOM     19  C   UNL     1      66.344  32.055 107.187  0.00  0.00    +0.119 C 
BRANCH  19  20
ATOM     20  N   UNL     1      66.451  32.102 105.699  0.00  0.00    -0.302 NA
ATOM     21  C   UNL     1      65.377  32.997 105.073  0.00  0.00    +0.066 C 
ATOM     22  C   UNL     1      65.518  33.053 103.517  0.00  0.00    -0.064 C 
ATOM     23  N   UNL     1      65.439  31.634 102.950  0.00  0.00    +0.379 N 
ATOM     24  C   UNL     1      65.513  31.688 101.482  0.00  0.00    -0.096 C 
ATOM     25  H   UNL     1      64.443  31.216 103.223  0.00  0.00    -0.082 HD
ATOM     26  C   UNL     1      66.502  30.737 103.568  0.00  0.00    -0.064 C 
ATOM     27  C   UNL     1      66.372  30.712 105.117  0.00  0.00    +0.066 C 
ENDBRANCH  19  20
ENDBRANCH  18  19
ENDBRANCH  14  15
ENDBRANCH  12  13
TORSDOF 6
ENDMDL
MODEL 2
REMARK VINA RESULT:      -8.2      7.918     11.201
REMARK  Name = C:\Users\Docking\Desktop\test protocol\1iep_ligandH.pdb
REMARK  8 active torsions:
REMARK  status: ('A' for Active; 'I' for Inactive)
REMARK    1  A    between atoms: _5  and  _11
REMARK    2  A    between atoms: _19  and  _21
REMARK    3  A    between atoms: _22  and  _66
REMARK    4  A    between atoms: _27  and  _30
REMARK    5  A    between atoms: _32  and  _33
REMARK    6  A    between atoms: _38  and  _43
REMARK    7  A    between atoms: _43  and  _46
REMARK    8  A    between atoms: _53  and  _55
REMARK                            x       y       z     vdW  Elec       q    Type
REMARK                         _______ _______ _______ _____ _____    ______ ____
ROOT
ATOM     10  C   UNL     1      67.048  34.738 101.289  0.00  0.00    +0.038 A 
ATOM     11  C   UNL     1      67.194  34.673 102.698  0.00  0.00    +0.047 A 
ATOM     12  C   UNL     1      66.177  34.052 103.532  0.00  0.00    +0.035 A 
ATOM     32  C   UNL     1      65.025  33.504 102.897  0.00  0.00    +0.024 A 
ATOM     33  C   UNL     1      64.859  33.563 101.465  0.00  0.00    +0.007 A 
ATOM     34  C   UNL     1      65.858  34.177 100.638  0.00  0.00    -0.029 A 
ATOM     35  C   UNL     1      65.626  34.217  99.110  0.00  0.00    +0.045 C 
ENDROOT
BRANCH  10   9
ATOM      4  C   UNL     1      71.163  34.591  98.822  0.00  0.00    +0.077 A 
ATOM      5  C   UNL     1      71.334  33.190  99.076  0.00  0.00    +0.048 A 
ATOM      6  C   UNL     1      70.344  32.545  99.851  0.00  0.00    +0.116 A 
ATOM      7  N   UNL     1      69.267  33.259 100.332  0.00  0.00    -0.223 NA
ATOM      8  C   UNL     1      69.134  34.611 100.070  0.00  0.00    +0.220 A 
ATOM      9  N   UNL     1      68.056  35.347 100.537  0.00  0.00    -0.283 N 
ATOM     36  H   UNL     1      67.998  36.343 100.328  0.00  0.00    +0.155 HD
ATOM     37  N   UNL     1      70.067  35.249  99.333  0.00  0.00    -0.214 NA
BRANCH   4   3
ATOM      1  C   UNL     1      73.736  37.330  97.736  0.00  0.00    +0.020 A 
ATOM      2  C   UNL     1      72.820  36.572  98.556  0.00  0.00    +0.013 A 
ATOM      3  C   UNL     1      72.122  35.411  98.017  0.00  0.00    +0.019 A 
ATOM     38  C   UNL     1      72.377  35.041  96.633  0.00  0.00    +0.120 A 
ATOM     39  N   UNL     1      73.264  35.790  95.866  0.00  0.00    -0.263 NA
ATOM     40  C   UNL     1      73.940  36.910  96.374  0.00  0.00    +0.111 A 
ENDBRANCH   4   3
ENDBRANCH  10   9
BRANCH  12  13
ATOM     13  N   UNL     1      66.267  33.963 104.968  0.00  0.00    -0.281 N 
ATOM     14  C   UNL     1      66.491  32.834 105.740  0.00  0.00    +0.248 C 
ATOM     30  O   UNL     1      66.436  31.688 105.319  0.00  0.00    -0.270 OA
ATOM     31  H   UNL     1      66.151  34.839 105.479  0.00  0.00    +0.155 HD
BRANCH  14  15
ATOM     15  C   UNL     1      66.808  33.002 107.190  0.00  0.00    +0.037 A 
ATOM     16  C   UNL     1      66.971  34.332 107.784  0.00  0.00    +0.013 A 
ATOM     17  C   UNL     1      67.294  34.466 109.182  0.00  0.00    +0.005 A 
ATOM     18  C   UNL     1      67.454  33.264 109.998  0.00  0.00    -0.033 A 
ATOM     28  C   UNL     1      67.282  31.958 109.385  0.00  0.00    +0.005 A 
ATOM     29  C   UNL     1      66.967  31.823 108.014  0.00  0.00    +0.013 A 
BRANCH  18  19
ATOM     19  C   UNL     1      67.819  33.312 111.493  0.00  0.00    +0.119 C 
BRANCH  19  20
ATOM     20  N   UNL     1      69.270  33.359 111.842  0.00  0.00    -0.302 NA
ATOM     21  C   UNL     1      69.542  34.261 113.050  0.00  0.00    +0.066 C 
ATOM     22  C   UNL     1      71.062  34.281 113.415  0.00  0.00    -0.064 C 
ATOM     23  N   UNL     1      71.869  34.745 112.201  0.00  0.00    +0.379 N 
ATOM     24  C   UNL     1      73.293  34.821 112.558  0.00  0.00    -0.096 C 
ATOM     25  H   UNL     1      71.529  35.775 111.943  0.00  0.00    -0.082 HD
ATOM     26  C   UNL     1      71.603  33.856 110.994  0.00  0.00    -0.064 C 
ATOM     27  C   UNL     1      70.086  33.819 110.658  0.00  0.00    +0.066 C 
ENDBRANCH  19  20
ENDBRANCH  18  19
ENDBRANCH  14  15
ENDBRANCH  12  13
TORSDOF 6
ENDMDL
MODEL 3
REMARK VINA RESULT:      -8.2      1.604      2.236
REMARK  Name = C:\Users\Docking\Desktop\test protocol\1iep_ligandH.pdb
REMARK  8 active torsions:
REMARK  status: ('A' for Active; 'I' for Inactive)
REMARK    1  A    between atoms: _5  and  _11
REMARK    2  A    between atoms: _19  and  _21
REMARK    3  A    between atoms: _22  and  _66
REMARK    4  A    between atoms: _27  and  _30
REMARK    5  A    between atoms: _32  and  _33
REMARK    6  A    between atoms: _38  and  _43
REMARK    7  A    between atoms: _43  and  _46
REMARK    8  A    between atoms: _53  and  _55
REMARK                            x       y       z     vdW  Elec       q    Type
REMARK                         _______ _______ _______ _____ _____    ______ ____
ROOT
ATOM     10  C   UNL     1      67.570  42.621 109.298  0.00  0.00    +0.038 A 
ATOM     11  C   UNL     1      67.209  41.272 109.053  0.00  0.00    +0.047 A 
ATOM     12  C   UNL     1      67.304  40.266 110.099  0.00  0.00    +0.035 A 
ATOM     32  C   UNL     1      67.768  40.670 111.385  0.00  0.00    +0.024 A 
ATOM     33  C   UNL     1      68.140  42.038 111.651  0.00  0.00    +0.007 A 
ATOM     34  C   UNL     1      68.051  43.034 110.622  0.00  0.00    -0.029 A 
ATOM     35  C   UNL     1      68.469  44.483 110.962  0.00  0.00    +0.045 C 
ENDROOT
BRANCH  10   9
ATOM      4  C   UNL     1      65.146  44.670 105.697  0.00  0.00    +0.077 A 
ATOM      5  C   UNL     1      64.016  43.808 105.889  0.00  0.00    +0.048 A 
ATOM      6  C   UNL     1      64.101  42.846 106.920  0.00  0.00    +0.116 A 
ATOM      7  N   UNL     1      65.237  42.762 107.696  0.00  0.00    -0.223 NA
ATOM      8  C   UNL     1      66.310  43.607 107.483  0.00  0.00    +0.220 A 
ATOM      9  N   UNL     1      67.459  43.546 108.257  0.00  0.00    -0.283 N 
ATOM     36  H   UNL     1      68.232  44.182 108.063  0.00  0.00    +0.155 HD
ATOM     37  N   UNL     1      66.254  44.533 106.504  0.00  0.00    -0.214 NA
BRANCH   4   3
ATOM      1  C   UNL     1      66.448  47.435 103.255  0.00  0.00    +0.020 A 
ATOM      2  C   UNL     1      66.444  46.409 104.273  0.00  0.00    +0.013 A 
ATOM      3  C   UNL     1      65.206  45.739 104.650  0.00  0.00    +0.019 A 
ATOM     38  C   UNL     1      63.980  46.131 103.972  0.00  0.00    +0.120 A 
ATOM     39  N   UNL     1      64.014  47.123 102.997  0.00  0.00    -0.263 NA
ATOM     40  C   UNL     1      65.199  47.777 102.627  0.00  0.00    +0.111 A 
ENDBRANCH   4   3
ENDBRANCH  10   9
BRANCH  12  13
ATOM     13  N   UNL     1      66.960  38.879 109.908  0.00  0.00    -0.281 N 
ATOM     14  C   UNL     1      65.729  38.273 110.097  0.00  0.00    +0.248 C 
ATOM     30  O   UNL     1      64.783  38.794 110.670  0.00  0.00    -0.270 OA
ATOM     31  H   UNL     1      67.715  38.270 109.593  0.00  0.00    +0.155 HD
BRANCH  14  15
ATOM     15  C   UNL     1      65.523  36.882 109.591  0.00  0.00    +0.037 A 
ATOM     16  C   UNL     1      66.643  36.083 109.086  0.00  0.00    +0.013 A 
ATOM     17  C   UNL     1      66.414  34.750 108.588  0.00  0.00    +0.005 A 
ATOM     18  C   UNL     1      65.058  34.206 108.594  0.00  0.00    -0.033 A 
ATOM     28  C   UNL     1      63.966  35.018 109.105  0.00  0.00    +0.005 A 
ATOM     29  C   UNL     1      64.186  36.326 109.593  0.00  0.00    +0.013 A 
BRANCH  18  19
ATOM     19  C   UNL     1      64.718  32.802 108.062  0.00  0.00    +0.119 C 
BRANCH  19  20
ATOM     20  N   UNL     1      64.805  32.590 106.586  0.00  0.00    -0.302 NA
ATOM     21  C   UNL     1      66.156  32.001 106.169  0.00  0.00    +0.066 C 
ATOM     22  C   UNL     1      66.222  31.765 104.625  0.00  0.00    -0.064 C 
ATOM     23  N   UNL     1      65.959  33.085 103.898  0.00  0.00    +0.379 N 
ATOM     24  C   UNL     1      66.077  32.878 102.447  0.00  0.00    -0.096 C 
ATOM     25  H   UNL     1      66.754  33.803 104.204  0.00  0.00    -0.082 HD
ATOM     26  C   UNL     1      64.619  33.679 104.309  0.00  0.00    -0.064 C 
ATOM     27  C   UNL     1      64.553  33.882 105.849  0.00  0.00    +0.066 C 
ENDBRANCH  19  20
ENDBRANCH  18  19
ENDBRANCH  14  15
ENDBRANCH  12  13
TORSDOF 6
ENDMDL
MODEL 4
REMARK VINA RESULT:      -8.2     14.735     20.840
REMARK  Name = C:\Users\Docking\Desktop\test protocol\1iep_ligandH.pdb
REMARK  8 active torsions:
REMARK  status: ('A' for Active; 'I' for Inactive)
REMARK    1  A    between atoms: _5  and  _11
REMARK    2  A    between atoms: _19  and  _21
REMARK    3  A    between atoms: _22  and  _66
REMARK    4  A    between atoms: _27  and  _30
REMARK    5  A    between atoms: _32  and  _33
REMARK    6  A    between atoms: _38  and  _43
REMARK    7  A    between atoms: _43  and  _46
REMARK    8  A    between atoms: _53  and  _55
REMARK                            x       y       z     vdW  Elec       q    Type
REMARK                         _______ _______ _______ _____ _____    ______ ____
ROOT
ATOM     10  C   UNL     1      79.850  26.425  99.100  0.00  0.00    +0.038 A 
ATOM     11  C   UNL     1      78.828  27.406  99.161  0.00  0.00    +0.047 A 
ATOM     12  C   UNL     1      77.429  27.029  99.293  0.00  0.00    +0.035 A 
ATOM     32  C   UNL     1      77.108  25.642  99.362  0.00  0.00    +0.024 A 
ATOM     33  C   UNL     1      78.134  24.631  99.301  0.00  0.00    +0.007 A 
ATOM     34  C   UNL     1      79.515  24.997  99.168  0.00  0.00    -0.029 A 
ATOM     35  C   UNL     1      80.573  23.871  99.101  0.00  0.00    +0.045 C 
ENDROOT
BRANCH  10   9
ATOM      4  C   UNL     1      83.851  27.096  96.535  0.00  0.00    +0.077 A 
ATOM      5  C   UNL     1      83.257  26.540  95.354  0.00  0.00    +0.048 A 
ATOM      6  C   UNL     1      81.923  26.086  95.450  0.00  0.00    +0.116 A 
ATOM      7  N   UNL     1      81.242  26.187  96.644  0.00  0.00    -0.223 NA
ATOM      8  C   UNL     1      81.845  26.726  97.765  0.00  0.00    +0.220 A 
ATOM      9  N   UNL     1      81.177  26.844  98.974  0.00  0.00    -0.283 N 
ATOM     36  H   UNL     1      81.659  27.241  99.780  0.00  0.00    +0.155 HD
ATOM     37  N   UNL     1      83.119  27.165  97.700  0.00  0.00    -0.214 NA
BRANCH   4   3
ATOM      1  C   UNL     1      87.749  27.361  96.343  0.00  0.00    +0.020 A 
ATOM      2  C   UNL     1      86.417  26.805  96.273  0.00  0.00    +0.013 A 
ATOM      3  C   UNL     1      85.252  27.621  96.592  0.00  0.00    +0.019 A 
ATOM     38  C   UNL     1      85.470  29.006  96.979  0.00  0.00    +0.120 A 
ATOM     39  N   UNL     1      86.765  29.514  97.038  0.00  0.00    -0.263 NA
ATOM     40  C   UNL     1      87.894  28.738  96.736  0.00  0.00    +0.111 A 
ENDBRANCH   4   3
ENDBRANCH  10   9
BRANCH  12  13
ATOM     13  N   UNL     1      76.348  27.980  99.352  0.00  0.00    -0.281 N 
ATOM     14  C   UNL     1      75.470  28.209 100.399  0.00  0.00    +0.248 C 
ATOM     30  O   UNL     1      75.348  27.477 101.371  0.00  0.00    -0.270 OA
ATOM     31  H   UNL     1      76.212  28.555  98.520  0.00  0.00    +0.155 HD
BRANCH  14  15
ATOM     15  C   UNL     1      74.592  29.417 100.355  0.00  0.00    +0.037 A 
ATOM     16  C   UNL     1      74.441  30.290 101.522  0.00  0.00    +0.013 A 
ATOM     17  C   UNL     1      73.574  31.440 101.457  0.00  0.00    +0.005 A 
ATOM     18  C   UNL     1      72.851  31.724 100.220  0.00  0.00    -0.033 A 
ATOM     28  C   UNL     1      73.024  30.844  99.075  0.00  0.00    +0.005 A 
ATOM     29  C   UNL     1      73.872  29.715  99.135  0.00  0.00    +0.013 A 
BRANCH  18  19
ATOM     19  C   UNL     1      71.889  32.916 100.068  0.00  0.00    +0.119 C 
BRANCH  19  20
ATOM     20  N   UNL     1      72.207  33.922  99.010  0.00  0.00    -0.302 NA
ATOM     21  C   UNL     1      73.546  34.620  99.266  0.00  0.00    +0.066 C 
ATOM     22  C   UNL     1      73.874  35.652  98.139  0.00  0.00    -0.064 C 
ATOM     23  N   UNL     1      72.740  36.674  98.041  0.00  0.00    +0.379 N 
ATOM     24  C   UNL     1      73.072  37.680  97.021  0.00  0.00    -0.096 C 
ATOM     25  H   UNL     1      72.671  37.197  99.023  0.00  0.00    -0.082 HD
ATOM     26  C   UNL     1      71.405  35.988  97.790  0.00  0.00    -0.064 C 
ATOM     27  C   UNL     1      71.102  34.943  98.900  0.00  0.00    +0.066 C 
ENDBRANCH  19  20
ENDBRANCH  18  19
ENDBRANCH  14  15
ENDBRANCH  12  13
TORSDOF 6
ENDMDL
MODEL 5
REMARK VINA RESULT:      -8.2     10.670     16.282
REMARK  Name = C:\Users\Docking\Desktop\test protocol\1iep_ligandH.pdb
REMARK  8 active torsions:
REMARK  status: ('A' for Active; 'I' for Inactive)
REMARK    1  A    between atoms: _5  and  _11
REMARK    2  A    between atoms: _19  and  _21
REMARK    3  A    between atoms: _22  and  _66
REMARK    4  A    between atoms: _27  and  _30
REMARK    5  A    between atoms: _32  and  _33
REMARK    6  A    between atoms: _38  and  _43
REMARK    7  A    between atoms: _43  and  _46
REMARK    8  A    between atoms: _53  and  _55
REMARK                            x       y       z     vdW  Elec       q    Type
REMARK                         _______ _______ _______ _____ _____    ______ ____
ROOT
ATOM     10  C   UNL     1      71.931  35.199  98.266  0.00  0.00    +0.038 A 
ATOM     11  C   UNL     1      71.566  35.964  97.129  0.00  0.00    +0.047 A 
ATOM     12  C   UNL     1      72.492  36.914  96.532  0.00  0.00    +0.035 A 
ATOM     32  C   UNL     1      73.784  37.056  97.117  0.00  0.00    +0.024 A 
ATOM     33  C   UNL     1      74.172  36.287  98.273  0.00  0.00    +0.007 A 
ATOM     34  C   UNL     1      73.261  35.351  98.868  0.00  0.00    -0.029 A 
ATOM     35  C   UNL     1      73.728  34.558 100.111  0.00  0.00    +0.045 C 
ENDROOT
BRANCH  10   9
ATOM      4  C   UNL     1      68.034  34.197 100.883  0.00  0.00    +0.077 A 
ATOM      5  C   UNL     1      67.849  35.574 101.241  0.00  0.00    +0.048 A 
ATOM      6  C   UNL     1      68.782  36.507 100.737  0.00  0.00    +0.116 A 
ATOM      7  N   UNL     1      69.820  36.084  99.935  0.00  0.00    -0.223 NA
ATOM      8  C   UNL     1      69.971  34.749  99.610  0.00  0.00    +0.220 A 
ATOM      9  N   UNL     1      71.003  34.302  98.799  0.00  0.00    -0.283 N 
ATOM     36  H   UNL     1      71.084  33.308  98.588  0.00  0.00    +0.155 HD
ATOM     37  N   UNL     1      69.094  33.837 100.080  0.00  0.00    -0.214 NA
BRANCH   4   3
ATOM      1  C   UNL     1      66.645  30.674 101.862  0.00  0.00    +0.020 A 
ATOM      2  C   UNL     1      67.558  31.702 101.419  0.00  0.00    +0.013 A 
ATOM      3  C   UNL     1      67.130  33.093 101.334  0.00  0.00    +0.019 A 
ATOM     38  C   UNL     1      65.760  33.412 101.709  0.00  0.00    +0.120 A 
ATOM     39  N   UNL     1      64.903  32.400 102.130  0.00  0.00    -0.263 NA
ATOM     40  C   UNL     1      65.304  31.058 102.214  0.00  0.00    +0.111 A 
ENDBRANCH   4   3
ENDBRANCH  10   9
BRANCH  12  13
ATOM     13  N   UNL     1      72.175  37.724  95.383  0.00  0.00    -0.281 N 
ATOM     14  C   UNL     1      72.370  37.419  94.045  0.00  0.00    +0.248 C 
ATOM     30  O   UNL     1      73.047  36.486  93.641  0.00  0.00    -0.270 OA
ATOM     31  H   UNL     1      71.755  38.633  95.578  0.00  0.00    +0.155 HD
BRANCH  14  15
ATOM     15  C   UNL     1      71.732  38.284  93.007  0.00  0.00    +0.037 A 
ATOM     16  C   UNL     1      71.262  37.725  91.737  0.00  0.00    +0.013 A 
ATOM     17  C   UNL     1      70.665  38.585  90.745  0.00  0.00    +0.005 A 
ATOM     18  C   UNL     1      70.534  40.014  91.021  0.00  0.00    -0.033 A 
ATOM     28  C   UNL     1      71.004  40.540  92.292  0.00  0.00    +0.005 A 
ATOM     29  C   UNL     1      71.590  39.701  93.266  0.00  0.00    +0.013 A 
BRANCH  18  19
ATOM     19  C   UNL     1      69.930  41.008  90.013  0.00  0.00    +0.119 C 
BRANCH  19  20
ATOM     20  N   UNL     1      69.004  42.050  90.551  0.00  0.00    -0.302 NA
ATOM     21  C   UNL     1      67.538  41.613  90.468  0.00  0.00    +0.066 C 
ATOM     22  C   UNL     1      66.585  42.704  91.055  0.00  0.00    -0.064 C 
ATOM     23  N   UNL     1      66.801  44.022  90.308  0.00  0.00    +0.379 N 
ATOM     24  C   UNL     1      65.866  45.034  90.819  0.00  0.00    -0.096 C 
ATOM     25  H   UNL     1      66.556  43.845  89.235  0.00  0.00    -0.082 HD
ATOM     26  C   UNL     1      68.256  44.462  90.383  0.00  0.00    -0.064 C 
ATOM     27  C   UNL     1      69.197  43.358  89.824  0.00  0.00    +0.066 C 
ENDBRANCH  19  20
ENDBRANCH  18  19
ENDBRANCH  14  15
ENDBRANCH  12  13
TORSDOF 6
ENDMDL
