MODEL 1
REMARK VINA RESULT:      -8.2      0.000      0.000
REMARK  Name = C:\Users\Docking\Desktop\test protocol\1iep_ligandH.pdb
REMARK  8 active torsions:
REMARK  status: ('A' for Active; 'I' for Inactive)
REMARK    1  A    between atoms: _5  and  _11
REMARK    2  A    between atoms: _19  and  _21
REMARK    3  A    between atoms: _22  and  _66
REMARK    4  A    between atoms: _27  and  _30
REMARK    5  A    between atoms: _32  and  _33
REMARK    6  A    between atoms: _38  and  _43
REMARK    7  A    between atoms: _43  and  _46
REMARK    8  A    between atoms: _53  and  _55
REMARK                            x       y       z     vdW  Elec       q    Type
REMARK                         _______ _______ _______ _____ _____    ______ ____
ROOT
ATOM     10  C   UNL     1      13.543 -13.634  32.045  0.00  0.00    +0.038 A 
ATOM     11  C   UNL     1      14.050 -12.326  31.838  0.00  0.00    +0.047 A 
ATOM     12  C   UNL     1      13.924 -11.299  32.860  0.00  0.00    +0.035 A 
ATOM     32  C   UNL     1      13.278 -11.640  34.084  0.00  0.00    +0.024 A 
ATOM     33  C   UNL     1      12.755 -12.964  34.311  0.00  0.00    +0.007 A 
ATOM     34  C   UNL     1      12.874 -13.981  33.305  0.00  0.00    -0.029 A 
ATOM     35  C   UNL     1      12.290 -15.381  33.601  0.00  0.00    +0.045 C 
ENDROOT
BRANCH  10   9
ATOM      4  C   UNL     1      12.252 -15.581  27.852  0.00  0.00    +0.077 A 
ATOM      5  C   UNL     1      11.174 -14.650  27.684  0.00  0.00    +0.048 A 
ATOM      6  C   UNL     1      10.981 -13.690  28.703  0.00  0.00    +0.116 A 
ATOM      7  N   UNL     1      11.810 -13.672  29.803  0.00  0.00    -0.223 NA
ATOM      8  C   UNL     1      12.840 -14.586  29.935  0.00  0.00    +0.220 A 
ATOM      9  N   UNL     1      13.691 -14.581  31.029  0.00  0.00    -0.283 N 
ATOM     36  H   UNL     1      14.434 -15.276  31.093  0.00  0.00    +0.155 HD
ATOM     37  N   UNL     1      13.044 -15.513  28.977  0.00  0.00    -0.214 NA
BRANCH   4   3
ATOM      1  C   UNL     1      12.215 -17.883  24.690  0.00  0.00    +0.020 A 
ATOM      2  C   UNL     1      11.852 -16.833  25.614  0.00  0.00    +0.013 A 
ATOM      3  C   UNL     1      12.585 -16.652  26.861  0.00  0.00    +0.019 A 
ATOM     38  C   UNL     1      13.688 -17.557  27.145  0.00  0.00    +0.120 A 
ATOM     39  N   UNL     1      14.013 -18.561  26.237  0.00  0.00    -0.263 NA
ATOM     40  C   UNL     1      13.315 -18.745  25.035  0.00  0.00    +0.111 A 
ENDBRANCH   4   3
ENDBRANCH  10   9
BRANCH  12  13
ATOM     13  N   UNL     1      14.413  -9.951  32.703  0.00  0.00    -0.281 N 
ATOM     14  C   UNL     1      15.729  -9.526  32.627  0.00  0.00    +0.248 C 
ATOM     30  O   UNL     1      16.697 -10.221  32.899  0.00  0.00    -0.270 OA
ATOM     31  H   UNL     1      13.702  -9.223  32.640  0.00  0.00    +0.155 HD
BRANCH  14  15
ATOM     15  C   UNL     1      16.011  -8.121  32.202  0.00  0.00    +0.037 A 
ATOM     16  C   UNL     1      16.000  -7.019  33.167  0.00  0.00    +0.013 A 
ATOM     17  C   UNL     1      16.259  -5.670  32.727  0.00  0.00    +0.005 A 
ATOM     18  C   UNL     1      16.531  -5.418  31.315  0.00  0.00    -0.033 A 
ATOM     28  C   UNL     1      16.540  -6.531  30.380  0.00  0.00    +0.005 A 
ATOM     29  C   UNL     1      16.287  -7.853  30.807  0.00  0.00    +0.013 A 
BRANCH  18  19
ATOM     19  C   UNL     1      16.796  -4.008  30.753  0.00  0.00    +0.119 C 
BRANCH  19  20
ATOM     20  N   UNL     1      17.124  -3.901  29.300  0.00  0.00    -0.302 NA
ATOM     21  C   UNL     1      18.220  -2.866  29.033  0.00  0.00    +0.066 C 
ATOM     22  C   UNL     1      18.566  -2.783  27.511  0.00  0.00    -0.064 C 
ATOM     23  N   UNL     1      17.300  -2.449  26.720  0.00  0.00    +0.379 N 
ATOM     24  C   UNL     1      17.634  -2.313  25.294  0.00  0.00    -0.096 C 
ATOM     25  H   UNL     1      16.931  -1.459  27.076  0.00  0.00    -0.082 HD
ATOM     26  C   UNL     1      16.205  -3.472  26.982  0.00  0.00    -0.064 C 
ATOM     27  C   UNL     1      15.889  -3.567  28.501  0.00  0.00    +0.066 C 
ENDBRANCH  19  20
ENDBRANCH  18  19
ENDBRANCH  14  15
ENDBRANCH  12  13
TORSDOF 6
ENDMDL
MODEL 2
REMARK VINA RESULT:      -7.9      1.347      1.670
REMARK  Name = C:\Users\Docking\Desktop\test protocol\1iep_ligandH.pdb
REMARK  8 active torsions:
REMARK  status: ('A' for Active; 'I' for Inactive)
REMARK    1  A    between atoms: _5  and  _11
REMARK    2  A    between atoms: _19  and  _21
REMARK    3  A    between atoms: _22  and  _66
REMARK    4  A    between atoms: _27  and  _30
REMARK    5  A    between atoms: _32  and  _33
REMARK    6  A    between atoms: _38  and  _43
REMARK    7  A    between atoms: _43  and  _46
REMARK    8  A    between atoms: _53  and  _55
REMARK                            x       y       z     vdW  Elec       q    Type
REMARK                         _______ _______ _______ _____ _____    ______ ____
ROOT
ATOM     10  C   UNL     1      13.921 -12.903  32.066  0.00  0.00    +0.038 A 
ATOM     11  C   UNL     1      14.289 -11.558  31.804  0.00  0.00    +0.047 A 
ATOM     12  C   UNL     1      14.171 -10.532  32.827  0.00  0.00    +0.035 A 
ATOM     32  C   UNL     1      13.676 -10.910  34.109  0.00  0.00    +0.024 A 
ATOM     33  C   UNL     1      13.295 -12.272  34.393  0.00  0.00    +0.007 A 
ATOM     34  C   UNL     1      13.407 -13.288  33.386  0.00  0.00    -0.029 A 
ATOM     35  C   UNL     1      12.979 -14.730  33.744  0.00  0.00    +0.045 C 
ENDROOT
BRANCH  10   9
ATOM      4  C   UNL     1      12.373 -15.069  28.072  0.00  0.00    +0.077 A 
ATOM      5  C   UNL     1      11.183 -14.269  28.029  0.00  0.00    +0.048 A 
ATOM      6  C   UNL     1      11.003 -13.316  29.057  0.00  0.00    +0.116 A 
ATOM      7  N   UNL     1      11.950 -13.182  30.049  0.00  0.00    -0.223 NA
ATOM      8  C   UNL     1      13.086 -13.971  30.063  0.00  0.00    +0.220 A 
ATOM      9  N   UNL     1      14.055 -13.847  31.046  0.00  0.00    -0.283 N 
ATOM     36  H   UNL     1      14.875 -14.453  31.025  0.00  0.00    +0.155 HD
ATOM     37  N   UNL     1      13.280 -14.889  29.093  0.00  0.00    -0.214 NA
BRANCH   4   3
ATOM      1  C   UNL     1      12.144 -17.557  25.063  0.00  0.00    +0.020 A 
ATOM      2  C   UNL     1      11.772 -16.542  26.021  0.00  0.00    +0.013 A 
ATOM      3  C   UNL     1      12.707 -16.116  27.055  0.00  0.00    +0.019 A 
ATOM     38  C   UNL     1      14.020 -16.741  27.092  0.00  0.00    +0.120 A 
ATOM     39  N   UNL     1      14.350 -17.717  26.157  0.00  0.00    -0.263 NA
ATOM     40  C   UNL     1      13.458 -18.136  25.158  0.00  0.00    +0.111 A 
ENDBRANCH   4   3
ENDBRANCH  10   9
BRANCH  12  13
ATOM     13  N   UNL     1      14.522  -9.150  32.616  0.00  0.00    -0.281 N 
ATOM     14  C   UNL     1      15.789  -8.598  32.522  0.00  0.00    +0.248 C 
ATOM     30  O   UNL     1      16.821  -9.181  32.820  0.00  0.00    -0.270 OA
ATOM     31  H   UNL     1      13.742  -8.499  32.526  0.00  0.00    +0.155 HD
BRANCH  14  15
ATOM     15  C   UNL     1      15.929  -7.189  32.041  0.00  0.00    +0.037 A 
ATOM     16  C   UNL     1      16.203  -6.092  32.973  0.00  0.00    +0.013 A 
ATOM     17  C   UNL     1      16.317  -4.740  32.485  0.00  0.00    +0.005 A 
ATOM     18  C   UNL     1      16.158  -4.479  31.057  0.00  0.00    -0.033 A 
ATOM     28  C   UNL     1      15.892  -5.587  30.154  0.00  0.00    +0.005 A 
ATOM     29  C   UNL     1      15.779  -6.913  30.629  0.00  0.00    +0.013 A 
BRANCH  18  19
ATOM     19  C   UNL     1      16.242  -3.066  30.451  0.00  0.00    +0.119 C 
BRANCH  19  20
ATOM     20  N   UNL     1      17.585  -2.595  29.997  0.00  0.00    -0.302 NA
ATOM     21  C   UNL     1      18.265  -1.705  31.041  0.00  0.00    +0.066 C 
ATOM     22  C   UNL     1      19.678  -1.240  30.559  0.00  0.00    -0.064 C 
ATOM     23  N   UNL     1      19.542  -0.504  29.226  0.00  0.00    +0.379 N 
ATOM     24  C   UNL     1      20.861  -0.015  28.799  0.00  0.00    -0.096 C 
ATOM     25  H   UNL     1      18.890   0.385  29.395  0.00  0.00    -0.082 HD
ATOM     26  C   UNL     1      18.864  -1.380  28.182  0.00  0.00    -0.064 C 
ATOM     27  C   UNL     1      17.474  -1.861  28.683  0.00  0.00    +0.066 C 
ENDBRANCH  19  20
ENDBRANCH  18  19
ENDBRANCH  14  15
ENDBRANCH  12  13
TORSDOF 6
ENDMDL
MODEL 3
REMARK VINA RESULT:      -7.9      1.505      2.207
REMARK  Name = C:\Users\Docking\Desktop\test protocol\1iep_ligandH.pdb
REMARK  8 active torsions:
REMARK  status: ('A' for Active; 'I' for Inactive)
REMARK    1  A    between atoms: _5  and  _11
REMARK    2  A    between atoms: _19  and  _21
REMARK    3  A    between atoms: _22  and  _66
REMARK    4  A    between atoms: _27  and  _30
REMARK    5  A    between atoms: _32  and  _33
REMARK    6  A    between atoms: _38  and  _43
REMARK    7  A    between atoms: _43  and  _46
REMARK    8  A    between atoms: _53  and  _55
REMARK                            x       y       z     vdW  Elec       q    Type
REMARK                         _______ _______ _______ _____ _____    ______ ____
ROOT
ATOM     10  C   UNL     1      13.909 -14.058  31.010  0.00  0.00    +0.038 A 
ATOM     11  C   UNL     1      14.399 -12.774  30.662  0.00  0.00    +0.047 A 
ATOM     12  C   UNL     1      14.309 -11.657  31.590  0.00  0.00    +0.035 A 
ATOM     32  C   UNL     1      13.715 -11.885  32.866  0.00  0.00    +0.024 A 
ATOM     33  C   UNL     1      13.211 -13.184  33.236  0.00  0.00    +0.007 A 
ATOM     34  C   UNL     1      13.295 -14.289  32.324  0.00  0.00    -0.029 A 
ATOM     35  C   UNL     1      12.732 -15.658  32.771  0.00  0.00    +0.045 C 
ENDROOT
BRANCH  10   9
ATOM      4  C   UNL     1      12.466 -16.383  27.067  0.00  0.00    +0.077 A 
ATOM      5  C   UNL     1      11.379 -15.470  26.855  0.00  0.00    +0.048 A 
ATOM      6  C   UNL     1      11.222 -14.421  27.788  0.00  0.00    +0.116 A 
ATOM      7  N   UNL     1      12.093 -14.302  28.849  0.00  0.00    -0.223 NA
ATOM      8  C   UNL     1      13.129 -15.200  29.025  0.00  0.00    +0.220 A 
ATOM      9  N   UNL     1      14.022 -15.095  30.081  0.00  0.00    -0.283 N 
ATOM     36  H   UNL     1      14.769 -15.781  30.180  0.00  0.00    +0.155 HD
ATOM     37  N   UNL     1      13.300 -16.212  28.149  0.00  0.00    -0.214 NA
BRANCH   4   3
ATOM      1  C   UNL     1      12.386 -18.905  24.078  0.00  0.00    +0.020 A 
ATOM      2  C   UNL     1      12.059 -17.771  24.912  0.00  0.00    +0.013 A 
ATOM      3  C   UNL     1      12.764 -17.541  26.166  0.00  0.00    +0.019 A 
ATOM     38  C   UNL     1      13.805 -18.483  26.550  0.00  0.00    +0.120 A 
ATOM     39  N   UNL     1      14.097 -19.566  25.728  0.00  0.00    -0.263 NA
ATOM     40  C   UNL     1      13.424 -19.799  24.520  0.00  0.00    +0.111 A 
ENDBRANCH   4   3
ENDBRANCH  10   9
BRANCH  12  13
ATOM     13  N   UNL     1      14.782 -10.328  31.289  0.00  0.00    -0.281 N 
ATOM     14  C   UNL     1      16.066  -9.829  31.432  0.00  0.00    +0.248 C 
ATOM     30  O   UNL     1      16.961 -10.390  32.046  0.00  0.00    -0.270 OA
ATOM     31  H   UNL     1      14.085  -9.677  30.926  0.00  0.00    +0.155 HD
BRANCH  14  15
ATOM     15  C   UNL     1      16.399  -8.508  30.818  0.00  0.00    +0.037 A 
ATOM     16  C   UNL     1      15.592  -7.316  31.092  0.00  0.00    +0.013 A 
ATOM     17  C   UNL     1      15.926  -6.058  30.472  0.00  0.00    +0.005 A 
ATOM     18  C   UNL     1      17.074  -5.985  29.573  0.00  0.00    -0.033 A 
ATOM     28  C   UNL     1      17.861  -7.182  29.322  0.00  0.00    +0.005 A 
ATOM     29  C   UNL     1      17.537  -8.417  29.927  0.00  0.00    +0.013 A 
BRANCH  18  19
ATOM     19  C   UNL     1      17.491  -4.690  28.852  0.00  0.00    +0.119 C 
BRANCH  19  20
ATOM     20  N   UNL     1      17.661  -3.465  29.689  0.00  0.00    -0.302 NA
ATOM     21  C   UNL     1      17.890  -2.214  28.837  0.00  0.00    +0.066 C 
ATOM     22  C   UNL     1      18.043  -0.938  29.729  0.00  0.00    -0.064 C 
ATOM     23  N   UNL     1      19.197  -1.143  30.712  0.00  0.00    +0.379 N 
ATOM     24  C   UNL     1      19.381   0.077  31.512  0.00  0.00    -0.096 C 
ATOM     25  H   UNL     1      20.126  -1.299  30.115  0.00  0.00    -0.082 HD
ATOM     26  C   UNL     1      18.979  -2.387  31.561  0.00  0.00    -0.064 C 
ATOM     27  C   UNL     1      18.799  -3.644  30.664  0.00  0.00    +0.066 C 
ENDBRANCH  19  20
ENDBRANCH  18  19
ENDBRANCH  14  15
ENDBRANCH  12  13
TORSDOF 6
ENDMDL
MODEL 4
REMARK VINA RESULT:      -7.8      2.066      2.928
REMARK  Name = C:\Users\Docking\Desktop\test protocol\1iep_ligandH.pdb
REMARK  8 active torsions:
REMARK  status: ('A' for Active; 'I' for Inactive)
REMARK    1  A    between atoms: _5  and  _11
REMARK    2  A    between atoms: _19  and  _21
REMARK    3  A    between atoms: _22  and  _66
REMARK    4  A    between atoms: _27  and  _30
REMARK    5  A    between atoms: _32  and  _33
REMARK    6  A    between atoms: _38  and  _43
REMARK    7  A    between atoms: _43  and  _46
REMARK    8  A    between atoms: _53  and  _55
REMARK                            x       y       z     vdW  Elec       q    Type
REMARK                         _______ _______ _______ _____ _____    ______ ____
ROOT
ATOM     10  C   UNL     1      14.067 -12.578  31.629  0.00  0.00    +0.038 A 
ATOM     11  C   UNL     1      14.423 -11.263  31.235  0.00  0.00    +0.047 A 
ATOM     12  C   UNL     1      14.368 -10.154  32.175  0.00  0.00    +0.035 A 
ATOM     32  C   UNL     1      13.948 -10.422  33.510  0.00  0.00    +0.024 A 
ATOM     33  C   UNL     1      13.580 -11.752  33.928  0.00  0.00    +0.007 A 
ATOM     34  C   UNL     1      13.630 -12.849  33.004  0.00  0.00    -0.029 A 
ATOM     35  C   UNL     1      13.219 -14.253  33.504  0.00  0.00    +0.045 C 
ENDROOT
BRANCH  10   9
ATOM      4  C   UNL     1      12.238 -15.114  27.987  0.00  0.00    +0.077 A 
ATOM      5  C   UNL     1      11.026 -14.345  27.982  0.00  0.00    +0.048 A 
ATOM      6  C   UNL     1      10.911 -13.311  28.938  0.00  0.00    +0.116 A 
ATOM      7  N   UNL     1      11.936 -13.072  29.827  0.00  0.00    -0.223 NA
ATOM      8  C   UNL     1      13.091 -13.833  29.805  0.00  0.00    +0.220 A 
ATOM      9  N   UNL     1      14.138 -13.604  30.684  0.00  0.00    -0.283 N 
ATOM     36  H   UNL     1      14.970 -14.193  30.641  0.00  0.00    +0.155 HD
ATOM     37  N   UNL     1      13.225 -14.827  28.903  0.00  0.00    -0.214 NA
BRANCH   4   3
ATOM      1  C   UNL     1      13.723 -18.341  26.350  0.00  0.00    +0.020 A 
ATOM      2  C   UNL     1      13.499 -17.277  27.301  0.00  0.00    +0.013 A 
ATOM      3  C   UNL     1      12.511 -16.238  27.036  0.00  0.00    +0.019 A 
ATOM     38  C   UNL     1      11.761 -16.306  25.791  0.00  0.00    +0.120 A 
ATOM     39  N   UNL     1      12.000 -17.342  24.893  0.00  0.00    -0.263 NA
ATOM     40  C   UNL     1      12.949 -18.346  25.136  0.00  0.00    +0.111 A 
ENDBRANCH   4   3
ENDBRANCH  10   9
BRANCH  12  13
ATOM     13  N   UNL     1      14.711  -8.797  31.830  0.00  0.00    -0.281 N 
ATOM     14  C   UNL     1      15.534  -7.924  32.523  0.00  0.00    +0.248 C 
ATOM     30  O   UNL     1      15.933  -8.108  33.663  0.00  0.00    -0.270 OA
ATOM     31  H   UNL     1      14.296  -8.435  30.971  0.00  0.00    +0.155 HD
BRANCH  14  15
ATOM     15  C   UNL     1      15.964  -6.656  31.859  0.00  0.00    +0.037 A 
ATOM     16  C   UNL     1      16.050  -6.554  30.400  0.00  0.00    +0.013 A 
ATOM     17  C   UNL     1      16.484  -5.325  29.785  0.00  0.00    +0.005 A 
ATOM     18  C   UNL     1      16.834  -4.186  30.630  0.00  0.00    -0.033 A 
ATOM     28  C   UNL     1      16.735  -4.313  32.075  0.00  0.00    +0.005 A 
ATOM     29  C   UNL     1      16.310  -5.517  32.681  0.00  0.00    +0.013 A 
BRANCH  18  19
ATOM     19  C   UNL     1      17.328  -2.842  30.062  0.00  0.00    +0.119 C 
BRANCH  19  20
ATOM     20  N   UNL     1      18.169  -1.990  30.954  0.00  0.00    -0.302 NA
ATOM     21  C   UNL     1      17.457  -0.692  31.345  0.00  0.00    +0.066 C 
ATOM     22  C   UNL     1      18.342   0.178  32.297  0.00  0.00    -0.064 C 
ATOM     23  N   UNL     1      19.678   0.477  31.614  0.00  0.00    +0.379 N 
ATOM     24  C   UNL     1      20.489   1.343  32.482  0.00  0.00    -0.096 C 
ATOM     25  H   UNL     1      19.460   1.044  30.679  0.00  0.00    -0.082 HD
ATOM     26  C   UNL     1      20.391  -0.808  31.219  0.00  0.00    -0.064 C 
ATOM     27  C   UNL     1      19.491  -1.678  30.297  0.00  0.00    +0.066 C 
ENDBRANCH  19  20
ENDBRANCH  18  19
ENDBRANCH  14  15
ENDBRANCH  12  13
TORSDOF 6
ENDMDL
MODEL 5
REMARK VINA RESULT:      -7.8      3.462      4.925
REMARK  Name = C:\Users\Docking\Desktop\test protocol\1iep_ligandH.pdb
REMARK  8 active torsions:
REMARK  status: ('A' for Active; 'I' for Inactive)
REMARK    1  A    between atoms: _5  and  _11
REMARK    2  A    between atoms: _19  and  _21
REMARK    3  A    between atoms: _22  and  _66
REMARK    4  A    between atoms: _27  and  _30
REMARK    5  A    between atoms: _32  and  _33
REMARK    6  A    between atoms: _38  and  _43
REMARK    7  A    between atoms: _43  and  _46
REMARK    8  A    between atoms: _53  and  _55
REMARK                            x       y       z     vdW  Elec       q    Type
REMARK                         _______ _______ _______ _____ _____    ______ ____
ROOT
ATOM     10  C   UNL     1      17.479 -11.208  29.569  0.00  0.00    +0.038 A 
ATOM     11  C   UNL     1      17.302  -9.803  29.484  0.00  0.00    +0.047 A 
ATOM     12  C   UNL     1      18.105  -8.893  30.285  0.00  0.00    +0.035 A 
ATOM     32  C   UNL     1      19.082  -9.448  31.162  0.00  0.00    +0.024 A 
ATOM     33  C   UNL     1      19.275 -10.873  31.262  0.00  0.00    +0.007 A 
ATOM     34  C   UNL     1      18.484 -11.776  30.476  0.00  0.00    -0.029 A 
ATOM     35  C   UNL     1      18.730 -13.295  30.629  0.00  0.00    +0.045 C 
ENDROOT
BRANCH  10   9
ATOM      4  C   UNL     1      13.430 -13.647  28.738  0.00  0.00    +0.077 A 
ATOM      5  C   UNL     1      12.868 -13.261  30.000  0.00  0.00    +0.048 A 
ATOM      6  C   UNL     1      13.657 -12.440  30.838  0.00  0.00    +0.116 A 
ATOM      7  N   UNL     1      14.912 -12.041  30.432  0.00  0.00    -0.223 NA
ATOM      8  C   UNL     1      15.424 -12.432  29.209  0.00  0.00    +0.220 A 
ATOM      9  N   UNL     1      16.680 -12.036  28.777  0.00  0.00    -0.283 N 
ATOM     36  H   UNL     1      17.025 -12.352  27.871  0.00  0.00    +0.155 HD
ATOM     37  N   UNL     1      14.691 -13.217  28.392  0.00  0.00    -0.214 NA
BRANCH   4   3
ATOM      1  C   UNL     1      10.639 -15.569  26.784  0.00  0.00    +0.020 A 
ATOM      2  C   UNL     1      11.277 -14.727  27.770  0.00  0.00    +0.013 A 
ATOM      3  C   UNL     1      12.718 -14.509  27.742  0.00  0.00    +0.019 A 
ATOM     38  C   UNL     1      13.490 -15.161  26.695  0.00  0.00    +0.120 A 
ATOM     39  N   UNL     1      12.848 -15.967  25.760  0.00  0.00    -0.263 NA
ATOM     40  C   UNL     1      11.462 -16.186  25.778  0.00  0.00    +0.111 A 
ENDBRANCH   4   3
ENDBRANCH  10   9
BRANCH  12  13
ATOM     13  N   UNL     1      17.964  -7.459  30.246  0.00  0.00    -0.281 N 
ATOM     14  C   UNL     1      16.893  -6.696  30.681  0.00  0.00    +0.248 C 
ATOM     30  O   UNL     1      15.797  -7.149  30.977  0.00  0.00    -0.270 OA
ATOM     31  H   UNL     1      18.749  -6.943  29.849  0.00  0.00    +0.155 HD
BRANCH  14  15
ATOM     15  C   UNL     1      17.058  -5.215  30.791  0.00  0.00    +0.037 A 
ATOM     16  C   UNL     1      16.315  -4.438  31.787  0.00  0.00    +0.013 A 
ATOM     17  C   UNL     1      16.480  -3.008  31.860  0.00  0.00    +0.005 A 
ATOM     18  C   UNL     1      17.394  -2.345  30.933  0.00  0.00    -0.033 A 
ATOM     28  C   UNL     1      18.122  -3.140  29.958  0.00  0.00    +0.005 A 
ATOM     29  C   UNL     1      17.962  -4.542  29.883  0.00  0.00    +0.013 A 
BRANCH  18  19
ATOM     19  C   UNL     1      17.617  -0.821  30.925  0.00  0.00    +0.119 C 
BRANCH  19  20
ATOM     20  N   UNL     1      18.833  -0.304  31.619  0.00  0.00    -0.302 NA
ATOM     21  C   UNL     1      18.534   0.952  32.444  0.00  0.00    +0.066 C 
ATOM     22  C   UNL     1      19.813   1.466  33.182  0.00  0.00    -0.064 C 
ATOM     23  N   UNL     1      20.914   1.741  32.156  0.00  0.00    +0.379 N 
ATOM     24  C   UNL     1      22.098   2.280  32.841  0.00  0.00    -0.096 C 
ATOM     25  H   UNL     1      20.539   2.527  31.460  0.00  0.00    -0.082 HD
ATOM     26  C   UNL     1      21.216   0.499  31.330  0.00  0.00    -0.064 C 
ATOM     27  C   UNL     1      19.932  -0.021  30.625  0.00  0.00    +0.066 C 
ENDBRANCH  19  20
ENDBRANCH  18  19
ENDBRANCH  14  15
ENDBRANCH  12  13
TORSDOF 6
ENDMDL
