MODEL 1
REMARK VINA RESULT:      -7.6      0.000      0.000
REMARK  Name = C:\Users\Docking\Desktop\test protocol\1iep_ligandH.pdb
REMARK  8 active torsions:
REMARK  status: ('A' for Active; 'I' for Inactive)
REMARK    1  A    between atoms: _5  and  _11
REMARK    2  A    between atoms: _19  and  _21
REMARK    3  A    between atoms: _22  and  _66
REMARK    4  A    between atoms: _27  and  _30
REMARK    5  A    between atoms: _32  and  _33
REMARK    6  A    between atoms: _38  and  _43
REMARK    7  A    between atoms: _43  and  _46
REMARK    8  A    between atoms: _53  and  _55
REMARK                            x       y       z     vdW  Elec       q    Type
REMARK                         _______ _______ _______ _____ _____    ______ ____
ROOT
ATOM     10  C   UNL     1      13.630   9.346   1.257  0.00  0.00    +0.038 A 
ATOM     11  C   UNL     1      14.995   9.556   1.577  0.00  0.00    +0.047 A 
ATOM     12  C   UNL     1      15.390  10.115   2.861  0.00  0.00    +0.035 A 
ATOM     32  C   UNL     1      14.366  10.447   3.796  0.00  0.00    +0.024 A 
ATOM     33  C   UNL     1      12.973  10.242   3.486  0.00  0.00    +0.007 A 
ATOM     34  C   UNL     1      12.578   9.693   2.221  0.00  0.00    -0.029 A 
ATOM     35  C   UNL     1      11.070   9.500   1.940  0.00  0.00    +0.045 C 
ENDROOT
BRANCH  10   9
ATOM      4  C   UNL     1      12.693   9.782  -3.430  0.00  0.00    +0.077 A 
ATOM      5  C   UNL     1      12.830  11.209  -3.385  0.00  0.00    +0.048 A 
ATOM      6  C   UNL     1      13.135  11.793  -2.135  0.00  0.00    +0.116 A 
ATOM      7  N   UNL     1      13.290  10.998  -1.020  0.00  0.00    -0.223 NA
ATOM      8  C   UNL     1      13.149   9.625  -1.098  0.00  0.00    +0.220 A 
ATOM      9  N   UNL     1      13.308   8.806   0.010  0.00  0.00    -0.283 N 
ATOM     36  H   UNL     1      13.188   7.798  -0.087  0.00  0.00    +0.155 HD
ATOM     37  N   UNL     1      12.856   9.044  -2.279  0.00  0.00    -0.214 NA
BRANCH   4   3
ATOM      1  C   UNL     1      12.035   6.872  -5.960  0.00  0.00    +0.020 A 
ATOM      2  C   UNL     1      12.348   7.561  -4.730  0.00  0.00    +0.013 A 
ATOM      3  C   UNL     1      12.376   9.018  -4.678  0.00  0.00    +0.019 A 
ATOM     38  C   UNL     1      12.079   9.752  -5.899  0.00  0.00    +0.120 A 
ATOM     39  N   UNL     1      11.783   9.061  -7.069  0.00  0.00    -0.263 NA
ATOM     40  C   UNL     1      11.755   7.660  -7.131  0.00  0.00    +0.111 A 
ENDBRANCH   4   3
ENDBRANCH  10   9
BRANCH  12  13
ATOM     13  N   UNL     1      16.760  10.359   3.239  0.00  0.00    -0.281 N 
ATOM     14  C   UNL     1      17.446   9.847   4.328  0.00  0.00    +0.248 C 
ATOM     30  O   UNL     1      16.920   9.268   5.267  0.00  0.00    -0.270 OA
ATOM     31  H   UNL     1      17.288  10.984   2.630  0.00  0.00    +0.155 HD
BRANCH  14  15
ATOM     15  C   UNL     1      18.930  10.016   4.391  0.00  0.00    +0.037 A 
ATOM     16  C   UNL     1      19.710   9.474   5.506  0.00  0.00    +0.013 A 
ATOM     17  C   UNL     1      21.138   9.666   5.551  0.00  0.00    +0.005 A 
ATOM     18  C   UNL     1      21.795  10.403   4.474  0.00  0.00    -0.033 A 
ATOM     28  C   UNL     1      20.998  10.925   3.377  0.00  0.00    +0.005 A 
ATOM     29  C   UNL     1      19.598  10.740   3.330  0.00  0.00    +0.013 A 
BRANCH  18  19
ATOM     19  C   UNL     1      23.311  10.674   4.450  0.00  0.00    +0.119 C 
BRANCH  19  20
ATOM     20  N   UNL     1      23.826  11.761   5.335  0.00  0.00    -0.302 NA
ATOM     21  C   UNL     1      23.677  13.143   4.693  0.00  0.00    +0.066 C 
ATOM     22  C   UNL     1      24.200  14.271   5.641  0.00  0.00    -0.064 C 
ATOM     23  N   UNL     1      25.661  13.995   6.001  0.00  0.00    +0.379 N 
ATOM     24  C   UNL     1      26.172  15.084   6.846  0.00  0.00    -0.096 C 
ATOM     25  H   UNL     1      26.248  13.997   5.054  0.00  0.00    -0.082 HD
ATOM     26  C   UNL     1      25.818  12.622   6.638  0.00  0.00    -0.064 C 
ATOM     27  C   UNL     1      25.269  11.511   5.700  0.00  0.00    +0.066 C 
ENDBRANCH  19  20
ENDBRANCH  18  19
ENDBRANCH  14  15
ENDBRANCH  12  13
TORSDOF 6
ENDMDL
MODEL 2
REMARK VINA RESULT:      -7.6      6.339     10.344
REMARK  Name = C:\Users\Docking\Desktop\test protocol\1iep_ligandH.pdb
REMARK  8 active torsions:
REMARK  status: ('A' for Active; 'I' for Inactive)
REMARK    1  A    between atoms: _5  and  _11
REMARK    2  A    between atoms: _19  and  _21
REMARK    3  A    between atoms: _22  and  _66
REMARK    4  A    between atoms: _27  and  _30
REMARK    5  A    between atoms: _32  and  _33
REMARK    6  A    between atoms: _38  and  _43
REMARK    7  A    between atoms: _43  and  _46
REMARK    8  A    between atoms: _53  and  _55
REMARK                            x       y       z     vdW  Elec       q    Type
REMARK                         _______ _______ _______ _____ _____    ______ ____
ROOT
ATOM     10  C   UNL     1      20.242  10.538   3.264  0.00  0.00    +0.038 A 
ATOM     11  C   UNL     1      20.713   9.808   4.386  0.00  0.00    +0.047 A 
ATOM     12  C   UNL     1      19.803   9.364   5.430  0.00  0.00    +0.035 A 
ATOM     32  C   UNL     1      18.419   9.678   5.299  0.00  0.00    +0.024 A 
ATOM     33  C   UNL     1      17.924  10.420   4.167  0.00  0.00    +0.007 A 
ATOM     34  C   UNL     1      18.817  10.863   3.134  0.00  0.00    -0.029 A 
ATOM     35  C   UNL     1      18.231  11.661   1.946  0.00  0.00    +0.045 C 
ENDROOT
BRANCH  10   9
ATOM      4  C   UNL     1      23.642  13.499   1.618  0.00  0.00    +0.077 A 
ATOM      5  C   UNL     1      23.565  14.331   2.784  0.00  0.00    +0.048 A 
ATOM      6  C   UNL     1      22.633  13.967   3.781  0.00  0.00    +0.116 A 
ATOM      7  N   UNL     1      21.841  12.851   3.614  0.00  0.00    -0.223 NA
ATOM      8  C   UNL     1      21.940  12.071   2.477  0.00  0.00    +0.220 A 
ATOM      9  N   UNL     1      21.160  10.940   2.291  0.00  0.00    -0.283 N 
ATOM     36  H   UNL     1      21.257  10.395   1.435  0.00  0.00    +0.155 HD
ATOM     37  N   UNL     1      22.822  12.398   1.509  0.00  0.00    -0.214 NA
BRANCH   4   3
ATOM      1  C   UNL     1      26.885  14.115  -0.481  0.00  0.00    +0.020 A 
ATOM      2  C   UNL     1      26.023  13.871   0.653  0.00  0.00    +0.013 A 
ATOM      3  C   UNL     1      24.581  13.751   0.479  0.00  0.00    +0.019 A 
ATOM     38  C   UNL     1      24.039  13.883  -0.865  0.00  0.00    +0.120 A 
ATOM     39  N   UNL     1      24.894  14.119  -1.937  0.00  0.00    -0.263 NA
ATOM     40  C   UNL     1      26.283  14.238  -1.782  0.00  0.00    +0.111 A 
ENDBRANCH   4   3
ENDBRANCH  10   9
BRANCH  12  13
ATOM     13  N   UNL     1      20.224   8.626   6.595  0.00  0.00    -0.281 N 
ATOM     14  C   UNL     1      19.920   7.317   6.931  0.00  0.00    +0.248 C 
ATOM     30  O   UNL     1      19.058   6.646   6.382  0.00  0.00    -0.270 OA
ATOM     31  H   UNL     1      20.819   9.130   7.253  0.00  0.00    +0.155 HD
BRANCH  14  15
ATOM     15  C   UNL     1      20.670   6.664   8.046  0.00  0.00    +0.037 A 
ATOM     16  C   UNL     1      22.126   6.786   8.157  0.00  0.00    +0.013 A 
ATOM     17  C   UNL     1      22.827   6.132   9.233  0.00  0.00    +0.005 A 
ATOM     18  C   UNL     1      22.071   5.351  10.210  0.00  0.00    -0.033 A 
ATOM     28  C   UNL     1      20.627   5.251  10.079  0.00  0.00    +0.005 A 
ATOM     29  C   UNL     1      19.937   5.890   9.025  0.00  0.00    +0.013 A 
BRANCH  18  19
ATOM     19  C   UNL     1      22.739   4.602  11.378  0.00  0.00    +0.119 C 
BRANCH  19  20
ATOM     20  N   UNL     1      22.396   5.049  12.761  0.00  0.00    -0.302 NA
ATOM     21  C   UNL     1      21.242   4.239  13.357  0.00  0.00    +0.066 C 
ATOM     22  C   UNL     1      20.911   4.705  14.813  0.00  0.00    -0.064 C 
ATOM     23  N   UNL     1      20.577   6.197  14.804  0.00  0.00    +0.379 N 
ATOM     24  C   UNL     1      20.210   6.626  16.162  0.00  0.00    -0.096 C 
ATOM     25  H   UNL     1      19.685   6.340  14.151  0.00  0.00    -0.082 HD
ATOM     26  C   UNL     1      21.719   7.010  14.211  0.00  0.00    -0.064 C 
ATOM     27  C   UNL     1      22.059   6.520  12.776  0.00  0.00    +0.066 C 
ENDBRANCH  19  20
ENDBRANCH  18  19
ENDBRANCH  14  15
ENDBRANCH  12  13
TORSDOF 6
ENDMDL
MODEL 3
REMARK VINA RESULT:      -7.5      3.078     14.791
REMARK  Name = C:\Users\Docking\Desktop\test protocol\1iep_ligandH.pdb
REMARK  8 active torsions:
REMARK  status: ('A' for Active; 'I' for Inactive)
REMARK    1  A    between atoms: _5  and  _11
REMARK    2  A    between atoms: _19  and  _21
REMARK    3  A    between atoms: _22  and  _66
REMARK    4  A    between atoms: _27  and  _30
REMARK    5  A    between atoms: _32  and  _33
REMARK    6  A    between atoms: _38  and  _43
REMARK    7  A    between atoms: _43  and  _46
REMARK    8  A    between atoms: _53  and  _55
REMARK                            x       y       z     vdW  Elec       q    Type
REMARK                         _______ _______ _______ _____ _____    ______ ____
ROOT
ATOM     10  C   UNL     1      25.291  12.555   5.085  0.00  0.00    +0.038 A 
ATOM     11  C   UNL     1      23.945  12.121   4.977  0.00  0.00    +0.047 A 
ATOM     12  C   UNL     1      23.116  12.512   3.848  0.00  0.00    +0.035 A 
ATOM     32  C   UNL     1      23.692  13.345   2.844  0.00  0.00    +0.024 A 
ATOM     33  C   UNL     1      25.058  13.796   2.938  0.00  0.00    +0.007 A 
ATOM     34  C   UNL     1      25.880  13.416   4.051  0.00  0.00    -0.029 A 
ATOM     35  C   UNL     1      27.335  13.934   4.103  0.00  0.00    +0.045 C 
ENDROOT
BRANCH  10   9
ATOM      4  C   UNL     1      26.834  13.128   9.594  0.00  0.00    +0.077 A 
ATOM      5  C   UNL     1      26.104  14.353   9.750  0.00  0.00    +0.048 A 
ATOM      6  C   UNL     1      25.350  14.805   8.645  0.00  0.00    +0.116 A 
ATOM      7  N   UNL     1      25.334  14.078   7.474  0.00  0.00    -0.223 NA
ATOM      8  C   UNL     1      26.050  12.901   7.356  0.00  0.00    +0.220 A 
ATOM      9  N   UNL     1      26.042  12.150   6.191  0.00  0.00    -0.283 N 
ATOM     36  H   UNL     1      26.590  11.291   6.141  0.00  0.00    +0.155 HD
ATOM     37  N   UNL     1      26.780  12.449   8.397  0.00  0.00    -0.214 NA
BRANCH   4   3
ATOM      1  C   UNL     1      27.965  11.232  12.823  0.00  0.00    +0.020 A 
ATOM      2  C   UNL     1      27.109  11.802  11.808  0.00  0.00    +0.013 A 
ATOM      3  C   UNL     1      27.675  12.519  10.673  0.00  0.00    +0.019 A 
ATOM     38  C   UNL     1      29.122  12.642  10.592  0.00  0.00    +0.120 A 
ATOM     39  N   UNL     1      29.922  12.084  11.585  0.00  0.00    -0.263 NA
ATOM     40  C   UNL     1      29.388  11.393  12.684  0.00  0.00    +0.111 A 
ENDBRANCH   4   3
ENDBRANCH  10   9
BRANCH  12  13
ATOM     13  N   UNL     1      21.741  12.109   3.689  0.00  0.00    -0.281 N 
ATOM     14  C   UNL     1      21.248  10.833   3.470  0.00  0.00    +0.248 C 
ATOM     30  O   UNL     1      21.934   9.870   3.162  0.00  0.00    -0.270 OA
ATOM     31  H   UNL     1      21.047  12.854   3.746  0.00  0.00    +0.155 HD
BRANCH  14  15
ATOM     15  C   UNL     1      19.777  10.596   3.596  0.00  0.00    +0.037 A 
ATOM     16  C   UNL     1      18.810  11.409   2.854  0.00  0.00    +0.013 A 
ATOM     17  C   UNL     1      17.397  11.170   3.008  0.00  0.00    +0.005 A 
ATOM     18  C   UNL     1      16.942  10.112   3.907  0.00  0.00    -0.033 A 
ATOM     28  C   UNL     1      17.924   9.318   4.627  0.00  0.00    +0.005 A 
ATOM     29  C   UNL     1      19.310   9.550   4.480  0.00  0.00    +0.013 A 
BRANCH  18  19
ATOM     19  C   UNL     1      15.453   9.802   4.148  0.00  0.00    +0.119 C 
BRANCH  19  20
ATOM     20  N   UNL     1      14.502  10.110   3.039  0.00  0.00    -0.302 NA
ATOM     21  C   UNL     1      13.142   9.437   3.244  0.00  0.00    +0.066 C 
ATOM     22  C   UNL     1      12.152   9.789   2.086  0.00  0.00    -0.064 C 
ATOM     23  N   UNL     1      12.767   9.370   0.749  0.00  0.00    +0.379 N 
ATOM     24  C   UNL     1      11.814   9.646  -0.336  0.00  0.00    -0.096 C 
ATOM     25  H   UNL     1      12.931   8.268   0.783  0.00  0.00    -0.082 HD
ATOM     26  C   UNL     1      14.121  10.033   0.538  0.00  0.00    -0.064 C 
ATOM     27  C   UNL     1      15.087   9.701   1.709  0.00  0.00    +0.066 C 
ENDBRANCH  19  20
ENDBRANCH  18  19
ENDBRANCH  14  15
ENDBRANCH  12  13
TORSDOF 6
ENDMDL
MODEL 4
REMARK VINA RESULT:      -7.5     12.714     16.939
REMARK  Name = C:\Users\Docking\Desktop\test protocol\1iep_ligandH.pdb
REMARK  8 active torsions:
REMARK  status: ('A' for Active; 'I' for Inactive)
REMARK    1  A    between atoms: _5  and  _11
REMARK    2  A    between atoms: _19  and  _21
REMARK    3  A    between atoms: _22  and  _66
REMARK    4  A    between atoms: _27  and  _30
REMARK    5  A    between atoms: _32  and  _33
REMARK    6  A    between atoms: _38  and  _43
REMARK    7  A    between atoms: _43  and  _46
REMARK    8  A    between atoms: _53  and  _55
REMARK                            x       y       z     vdW  Elec       q    Type
REMARK                         _______ _______ _______ _____ _____    ______ ____
ROOT
ATOM     10  C   UNL     1      21.079   5.839  12.553  0.00  0.00    +0.038 A 
ATOM     11  C   UNL     1      20.594   4.612  13.071  0.00  0.00    +0.047 A 
ATOM     12  C   UNL     1      21.329   3.883  14.093  0.00  0.00    +0.035 A 
ATOM     32  C   UNL     1      22.554   4.436  14.567  0.00  0.00    +0.024 A 
ATOM     33  C   UNL     1      23.063   5.682  14.051  0.00  0.00    +0.007 A 
ATOM     34  C   UNL     1      22.343   6.404  13.041  0.00  0.00    -0.029 A 
ATOM     35  C   UNL     1      22.939   7.732  12.519  0.00  0.00    +0.045 C 
ENDROOT
BRANCH  10   9
ATOM      4  C   UNL     1      20.296   7.159   8.005  0.00  0.00    +0.077 A 
ATOM      5  C   UNL     1      21.490   6.507   7.548  0.00  0.00    +0.048 A 
ATOM      6  C   UNL     1      22.281   5.849   8.516  0.00  0.00    +0.116 A 
ATOM      7  N   UNL     1      21.898   5.850   9.840  0.00  0.00    -0.223 NA
ATOM      8  C   UNL     1      20.742   6.490  10.247  0.00  0.00    +0.220 A 
ATOM      9  N   UNL     1      20.333   6.497  11.572  0.00  0.00    -0.283 N 
ATOM     36  H   UNL     1      19.478   6.987  11.833  0.00  0.00    +0.155 HD
ATOM     37  N   UNL     1      19.970   7.127   9.342  0.00  0.00    -0.214 NA
BRANCH   4   3
ATOM      1  C   UNL     1      17.331   9.340   6.682  0.00  0.00    +0.020 A 
ATOM      2  C   UNL     1      18.209   8.648   7.596  0.00  0.00    +0.013 A 
ATOM      3  C   UNL     1      19.355   7.894   7.102  0.00  0.00    +0.019 A 
ATOM     38  C   UNL     1      19.586   7.862   5.666  0.00  0.00    +0.120 A 
ATOM     39  N   UNL     1      18.722   8.537   4.809  0.00  0.00    -0.263 NA
ATOM     40  C   UNL     1      17.616   9.264   5.273  0.00  0.00    +0.111 A 
ENDBRANCH   4   3
ENDBRANCH  10   9
BRANCH  12  13
ATOM     13  N   UNL     1      20.889   2.628  14.651  0.00  0.00    -0.281 N 
ATOM     14  C   UNL     1      20.600   2.339  15.974  0.00  0.00    +0.248 C 
ATOM     30  O   UNL     1      20.882   3.063  16.917  0.00  0.00    -0.270 OA
ATOM     31  H   UNL     1      20.778   1.859  13.989  0.00  0.00    +0.155 HD
BRANCH  14  15
ATOM     15  C   UNL     1      19.910   1.053  16.299  0.00  0.00    +0.037 A 
ATOM     16  C   UNL     1      20.287  -0.199  15.637  0.00  0.00    +0.013 A 
ATOM     17  C   UNL     1      19.594  -1.422  15.956  0.00  0.00    +0.005 A 
ATOM     18  C   UNL     1      18.518  -1.399  16.944  0.00  0.00    -0.033 A 
ATOM     28  C   UNL     1      18.168  -0.144  17.589  0.00  0.00    +0.005 A 
ATOM     29  C   UNL     1      18.845   1.057  17.278  0.00  0.00    +0.013 A 
BRANCH  18  19
ATOM     19  C   UNL     1      17.710  -2.652  17.330  0.00  0.00    +0.119 C 
BRANCH  19  20
ATOM     20  N   UNL     1      17.109  -2.683  18.697  0.00  0.00    -0.302 NA
ATOM     21  C   UNL     1      18.030  -3.364  19.714  0.00  0.00    +0.066 C 
ATOM     22  C   UNL     1      17.395  -3.368  21.143  0.00  0.00    -0.064 C 
ATOM     23  N   UNL     1      16.035  -4.066  21.092  0.00  0.00    +0.379 N 
ATOM     24  C   UNL     1      15.461  -4.122  22.444  0.00  0.00    -0.096 C 
ATOM     25  H   UNL     1      16.205  -5.114  20.752  0.00  0.00    -0.082 HD
ATOM     26  C   UNL     1      15.114  -3.397  20.080  0.00  0.00    -0.064 C 
ATOM     27  C   UNL     1      15.767  -3.372  18.670  0.00  0.00    +0.066 C 
ENDBRANCH  19  20
ENDBRANCH  18  19
ENDBRANCH  14  15
ENDBRANCH  12  13
TORSDOF 6
ENDMDL
MODEL 5
REMARK VINA RESULT:      -7.4     11.975     16.399
REMARK  Name = C:\Users\Docking\Desktop\test protocol\1iep_ligandH.pdb
REMARK  8 active torsions:
REMARK  status: ('A' for Active; 'I' for Inactive)
REMARK    1  A    between atoms: _5  and  _11
REMARK    2  A    between atoms: _19  and  _21
REMARK    3  A    between atoms: _22  and  _66
REMARK    4  A    between atoms: _27  and  _30
REMARK    5  A    between atoms: _32  and  _33
REMARK    6  A    between atoms: _38  and  _43
REMARK    7  A    between atoms: _43  and  _46
REMARK    8  A    between atoms: _53  and  _55
REMARK                            x       y       z     vdW  Elec       q    Type
REMARK                         _______ _______ _______ _____ _____    ______ ____
ROOT
ATOM     10  C   UNL     1      20.992   5.872  12.648  0.00  0.00    +0.038 A 
ATOM     11  C   UNL     1      20.635   4.556  13.041  0.00  0.00    +0.047 A 
ATOM     12  C   UNL     1      21.364   3.861  14.091  0.00  0.00    +0.035 A 
ATOM     32  C   UNL     1      22.450   4.536  14.720  0.00  0.00    +0.024 A 
ATOM     33  C   UNL     1      22.827   5.873  14.332  0.00  0.00    +0.007 A 
ATOM     34  C   UNL     1      22.113   6.563  13.296  0.00  0.00    -0.029 A 
ATOM     35  C   UNL     1      22.565   7.992  12.917  0.00  0.00    +0.045 C 
ENDROOT
BRANCH  10   9
ATOM      4  C   UNL     1      20.326   7.123   8.063  0.00  0.00    +0.077 A 
ATOM      5  C   UNL     1      21.558   6.513   7.655  0.00  0.00    +0.048 A 
ATOM      6  C   UNL     1      22.338   5.893   8.657  0.00  0.00    +0.116 A 
ATOM      7  N   UNL     1      21.907   5.890   9.966  0.00  0.00    -0.223 NA
ATOM      8  C   UNL     1      20.714   6.490  10.326  0.00  0.00    +0.220 A 
ATOM      9  N   UNL     1      20.258   6.492  11.635  0.00  0.00    -0.283 N 
ATOM     36  H   UNL     1      19.376   6.952  11.861  0.00  0.00    +0.155 HD
ATOM     37  N   UNL     1      19.952   7.090   9.388  0.00  0.00    -0.214 NA
BRANCH   4   3
ATOM      1  C   UNL     1      17.448   9.343   6.616  0.00  0.00    +0.020 A 
ATOM      2  C   UNL     1      18.323   8.700   7.569  0.00  0.00    +0.013 A 
ATOM      3  C   UNL     1      19.391   7.815   7.119  0.00  0.00    +0.019 A 
ATOM     38  C   UNL     1      19.547   7.601   5.689  0.00  0.00    +0.120 A 
ATOM     39  N   UNL     1      18.688   8.233   4.795  0.00  0.00    -0.263 NA
ATOM     40  C   UNL     1      17.656   9.086   5.216  0.00  0.00    +0.111 A 
ENDBRANCH   4   3
ENDBRANCH  10   9
BRANCH  12  13
ATOM     13  N   UNL     1      21.053   2.522  14.526  0.00  0.00    -0.281 N 
ATOM     14  C   UNL     1      20.583   2.118  15.765  0.00  0.00    +0.248 C 
ATOM     30  O   UNL     1      20.560   2.826  16.761  0.00  0.00    -0.270 OA
ATOM     31  H   UNL     1      21.197   1.783  13.838  0.00  0.00    +0.155 HD
BRANCH  14  15
ATOM     15  C   UNL     1      20.077   0.720  15.924  0.00  0.00    +0.037 A 
ATOM     16  C   UNL     1      19.060   0.389  16.926  0.00  0.00    +0.013 A 
ATOM     17  C   UNL     1      18.602  -0.970  17.070  0.00  0.00    +0.005 A 
ATOM     18  C   UNL     1      19.160  -2.009  16.208  0.00  0.00    -0.033 A 
ATOM     28  C   UNL     1      20.164  -1.652  15.219  0.00  0.00    +0.005 A 
ATOM     29  C   UNL     1      20.616  -0.321  15.075  0.00  0.00    +0.013 A 
BRANCH  18  19
ATOM     19  C   UNL     1      18.746  -3.489  16.306  0.00  0.00    +0.119 C 
BRANCH  19  20
ATOM     20  N   UNL     1      18.560  -4.233  15.025  0.00  0.00    -0.302 NA
ATOM     21  C   UNL     1      17.229  -4.989  14.987  0.00  0.00    +0.066 C 
ATOM     22  C   UNL     1      17.040  -5.743  13.631  0.00  0.00    -0.064 C 
ATOM     23  N   UNL     1      18.213  -6.702  13.417  0.00  0.00    +0.379 N 
ATOM     24  C   UNL     1      18.010  -7.456  12.171  0.00  0.00    -0.096 C 
ATOM     25  H   UNL     1      18.210  -7.433  14.259  0.00  0.00    -0.082 HD
ATOM     26  C   UNL     1      19.541  -5.960  13.456  0.00  0.00    -0.064 C 
ATOM     27  C   UNL     1      19.705  -5.189  14.796  0.00  0.00    +0.066 C 
ENDBRANCH  19  20
ENDBRANCH  18  19
ENDBRANCH  14  15
ENDBRANCH  12  13
TORSDOF 6
ENDMDL
