MODEL 1
REMARK VINA RESULT:      -7.9      0.000      0.000
REMARK  Name = C:\Users\Docking\Desktop\test protocol\1iep_ligandH.pdb
REMARK  8 active torsions:
REMARK  status: ('A' for Active; 'I' for Inactive)
REMARK    1  A    between atoms: _5  and  _11
REMARK    2  A    between atoms: _19  and  _21
REMARK    3  A    between atoms: _22  and  _66
REMARK    4  A    between atoms: _27  and  _30
REMARK    5  A    between atoms: _32  and  _33
REMARK    6  A    between atoms: _38  and  _43
REMARK    7  A    between atoms: _43  and  _46
REMARK    8  A    between atoms: _53  and  _55
REMARK                            x       y       z     vdW  Elec       q    Type
REMARK                         _______ _______ _______ _____ _____    ______ ____
ROOT
ATOM     10  C   UNL     1      13.573   9.265   1.362  0.00  0.00    +0.038 A 
ATOM     11  C   UNL     1      14.941   9.464   1.680  0.00  0.00    +0.047 A 
ATOM     12  C   UNL     1      15.343  10.015   2.964  0.00  0.00    +0.035 A 
ATOM     32  C   UNL     1      14.325  10.351   3.903  0.00  0.00    +0.024 A 
ATOM     33  C   UNL     1      12.930  10.157   3.597  0.00  0.00    +0.007 A 
ATOM     34  C   UNL     1      12.527   9.616   2.330  0.00  0.00    -0.029 A 
ATOM     35  C   UNL     1      11.017   9.435   2.052  0.00  0.00    +0.045 C 
ENDROOT
BRANCH  10   9
ATOM      4  C   UNL     1      12.747   9.709  -3.345  0.00  0.00    +0.077 A 
ATOM      5  C   UNL     1      12.963  11.127  -3.310  0.00  0.00    +0.048 A 
ATOM      6  C   UNL     1      13.277  11.704  -2.059  0.00  0.00    +0.116 A 
ATOM      7  N   UNL     1      13.367  10.913  -0.934  0.00  0.00    -0.223 NA
ATOM      8  C   UNL     1      13.151   9.549  -1.003  0.00  0.00    +0.220 A 
ATOM      9  N   UNL     1      13.244   8.732   0.113  0.00  0.00    -0.283 N 
ATOM     36  H   UNL     1      13.071   7.732   0.022  0.00  0.00    +0.155 HD
ATOM     37  N   UNL     1      12.848   8.974  -2.186  0.00  0.00    -0.214 NA
BRANCH   4   3
ATOM      1  C   UNL     1      11.700   8.829  -7.010  0.00  0.00    +0.020 A 
ATOM      2  C   UNL     1      12.015   9.607  -5.834  0.00  0.00    +0.013 A 
ATOM      3  C   UNL     1      12.410   8.953  -4.592  0.00  0.00    +0.019 A 
ATOM     38  C   UNL     1      12.478   7.499  -4.575  0.00  0.00    +0.120 A 
ATOM     39  N   UNL     1      12.168   6.777  -5.723  0.00  0.00    -0.263 NA
ATOM     40  C   UNL     1      11.785   7.395  -6.923  0.00  0.00    +0.111 A 
ENDBRANCH   4   3
ENDBRANCH  10   9
BRANCH  12  13
ATOM     13  N   UNL     1      16.716  10.246   3.340  0.00  0.00    -0.281 N 
ATOM     14  C   UNL     1      17.398   9.734   4.431  0.00  0.00    +0.248 C 
ATOM     30  O   UNL     1      16.867   9.165   5.373  0.00  0.00    -0.270 OA
ATOM     31  H   UNL     1      17.249  10.863   2.727  0.00  0.00    +0.155 HD
BRANCH  14  15
ATOM     15  C   UNL     1      18.884   9.888   4.491  0.00  0.00    +0.037 A 
ATOM     16  C   UNL     1      19.656   9.370   5.623  0.00  0.00    +0.013 A 
ATOM     17  C   UNL     1      21.086   9.547   5.665  0.00  0.00    +0.005 A 
ATOM     18  C   UNL     1      21.753  10.246   4.569  0.00  0.00    -0.033 A 
ATOM     28  C   UNL     1      20.963  10.745   3.455  0.00  0.00    +0.005 A 
ATOM     29  C   UNL     1      19.561  10.574   3.412  0.00  0.00    +0.013 A 
BRANCH  18  19
ATOM     19  C   UNL     1      23.272  10.499   4.540  0.00  0.00    +0.119 C 
BRANCH  19  20
ATOM     20  N   UNL     1      23.793  11.630   5.364  0.00  0.00    -0.302 NA
ATOM     21  C   UNL     1      23.443  12.992   4.758  0.00  0.00    +0.066 C 
ATOM     22  C   UNL     1      23.975  14.164   5.645  0.00  0.00    -0.064 C 
ATOM     23  N   UNL     1      25.488  14.021   5.820  0.00  0.00    +0.379 N 
ATOM     24  C   UNL     1      26.001  15.153   6.605  0.00  0.00    -0.096 C 
ATOM     25  H   UNL     1      25.952  14.074   4.807  0.00  0.00    -0.082 HD
ATOM     26  C   UNL     1      25.845  12.668   6.420  0.00  0.00    -0.064 C 
ATOM     27  C   UNL     1      25.286  11.511   5.546  0.00  0.00    +0.066 C 
ENDBRANCH  19  20
ENDBRANCH  18  19
ENDBRANCH  14  15
ENDBRANCH  12  13
TORSDOF 6
ENDMDL
MODEL 2
REMARK VINA RESULT:      -7.9      9.272     15.472
REMARK  Name = C:\Users\Docking\Desktop\test protocol\1iep_ligandH.pdb
REMARK  8 active torsions:
REMARK  status: ('A' for Active; 'I' for Inactive)
REMARK    1  A    between atoms: _5  and  _11
REMARK    2  A    between atoms: _19  and  _21
REMARK    3  A    between atoms: _22  and  _66
REMARK    4  A    between atoms: _27  and  _30
REMARK    5  A    between atoms: _32  and  _33
REMARK    6  A    between atoms: _38  and  _43
REMARK    7  A    between atoms: _43  and  _46
REMARK    8  A    between atoms: _53  and  _55
REMARK                            x       y       z     vdW  Elec       q    Type
REMARK                         _______ _______ _______ _____ _____    ______ ____
ROOT
ATOM     10  C   UNL     1      21.517   5.627  13.441  0.00  0.00    +0.038 A 
ATOM     11  C   UNL     1      20.905   6.004  12.218  0.00  0.00    +0.047 A 
ATOM     12  C   UNL     1      21.627   6.784  11.225  0.00  0.00    +0.035 A 
ATOM     32  C   UNL     1      22.972   7.161  11.509  0.00  0.00    +0.024 A 
ATOM     33  C   UNL     1      23.609   6.787  12.748  0.00  0.00    +0.007 A 
ATOM     34  C   UNL     1      22.901   6.020  13.732  0.00  0.00    -0.029 A 
ATOM     35  C   UNL     1      23.631   5.653  15.045  0.00  0.00    +0.045 C 
ENDROOT
BRANCH  10   9
ATOM      4  C   UNL     1      20.448   1.505  15.657  0.00  0.00    +0.077 A 
ATOM      5  C   UNL     1      21.428   0.778  14.903  0.00  0.00    +0.048 A 
ATOM      6  C   UNL     1      22.181   1.499  13.950  0.00  0.00    +0.116 A 
ATOM      7  N   UNL     1      21.962   2.848  13.773  0.00  0.00    -0.223 NA
ATOM      8  C   UNL     1      21.008   3.520  14.515  0.00  0.00    +0.220 A 
ATOM      9  N   UNL     1      20.777   4.878  14.359  0.00  0.00    -0.283 N 
ATOM     36  H   UNL     1      20.059   5.335  14.921  0.00  0.00    +0.155 HD
ATOM     37  N   UNL     1      20.275   2.853  15.430  0.00  0.00    -0.214 NA
BRANCH   4   3
ATOM      1  C   UNL     1      18.018   1.015  18.683  0.00  0.00    +0.020 A 
ATOM      2  C   UNL     1      18.848   1.665  17.694  0.00  0.00    +0.013 A 
ATOM      3  C   UNL     1      19.576   0.884  16.703  0.00  0.00    +0.019 A 
ATOM     38  C   UNL     1      19.442  -0.565  16.739  0.00  0.00    +0.120 A 
ATOM     39  N   UNL     1      18.638  -1.163  17.704  0.00  0.00    -0.263 NA
ATOM     40  C   UNL     1      17.933  -0.421  18.664  0.00  0.00    +0.111 A 
ENDBRANCH   4   3
ENDBRANCH  10   9
BRANCH  12  13
ATOM     13  N   UNL     1      21.056   7.203   9.969  0.00  0.00    -0.281 N 
ATOM     14  C   UNL     1      20.360   6.433   9.051  0.00  0.00    +0.248 C 
ATOM     30  O   UNL     1      20.307   5.212   9.072  0.00  0.00    -0.270 OA
ATOM     31  H   UNL     1      21.180   8.186   9.727  0.00  0.00    +0.155 HD
BRANCH  14  15
ATOM     15  C   UNL     1      19.628   7.118   7.942  0.00  0.00    +0.037 A 
ATOM     16  C   UNL     1      19.822   6.721   6.545  0.00  0.00    +0.013 A 
ATOM     17  C   UNL     1      19.117   7.409   5.493  0.00  0.00    +0.005 A 
ATOM     18  C   UNL     1      18.209   8.501   5.836  0.00  0.00    -0.033 A 
ATOM     28  C   UNL     1      18.031   8.871   7.230  0.00  0.00    +0.005 A 
ATOM     29  C   UNL     1      18.721   8.199   8.264  0.00  0.00    +0.013 A 
BRANCH  18  19
ATOM     19  C   UNL     1      17.431   9.305   4.777  0.00  0.00    +0.119 C 
BRANCH  19  20
ATOM     20  N   UNL     1      18.190  10.335   4.006  0.00  0.00    -0.302 NA
ATOM     21  C   UNL     1      17.636  10.516   2.590  0.00  0.00    +0.066 C 
ATOM     22  C   UNL     1      18.428  11.612   1.805  0.00  0.00    -0.064 C 
ATOM     23  N   UNL     1      19.910  11.236   1.763  0.00  0.00    +0.379 N 
ATOM     24  C   UNL     1      20.648  12.235   0.977  0.00  0.00    -0.096 C 
ATOM     25  H   UNL     1      19.995  10.258   1.234  0.00  0.00    -0.082 HD
ATOM     26  C   UNL     1      20.468  11.051   3.167  0.00  0.00    -0.064 C 
ATOM     27  C   UNL     1      19.656   9.980   3.948  0.00  0.00    +0.066 C 
ENDBRANCH  19  20
ENDBRANCH  18  19
ENDBRANCH  14  15
ENDBRANCH  12  13
TORSDOF 6
ENDMDL
MODEL 3
REMARK VINA RESULT:      -7.8     13.156     17.361
REMARK  Name = C:\Users\Docking\Desktop\test protocol\1iep_ligandH.pdb
REMARK  8 active torsions:
REMARK  status: ('A' for Active; 'I' for Inactive)
REMARK    1  A    between atoms: _5  and  _11
REMARK    2  A    between atoms: _19  and  _21
REMARK    3  A    between atoms: _22  and  _66
REMARK    4  A    between atoms: _27  and  _30
REMARK    5  A    between atoms: _32  and  _33
REMARK    6  A    between atoms: _38  and  _43
REMARK    7  A    between atoms: _43  and  _46
REMARK    8  A    between atoms: _53  and  _55
REMARK                            x       y       z     vdW  Elec       q    Type
REMARK                         _______ _______ _______ _____ _____    ______ ____
ROOT
ATOM     10  C   UNL     1      20.604   5.465  13.156  0.00  0.00    +0.038 A 
ATOM     11  C   UNL     1      20.156   4.164  13.499  0.00  0.00    +0.047 A 
ATOM     12  C   UNL     1      20.628   3.498  14.703  0.00  0.00    +0.035 A 
ATOM     32  C   UNL     1      21.554   4.189  15.537  0.00  0.00    +0.024 A 
ATOM     33  C   UNL     1      22.021   5.511  15.204  0.00  0.00    +0.007 A 
ATOM     34  C   UNL     1      21.562   6.172  14.015  0.00  0.00    -0.029 A 
ATOM     35  C   UNL     1      22.101   7.587  13.704  0.00  0.00    +0.045 C 
ENDROOT
BRANCH  10   9
ATOM      4  C   UNL     1      21.028   6.667   8.528  0.00  0.00    +0.077 A 
ATOM      5  C   UNL     1      22.338   6.090   8.437  0.00  0.00    +0.048 A 
ATOM      6  C   UNL     1      22.870   5.501   9.606  0.00  0.00    +0.116 A 
ATOM      7  N   UNL     1      22.137   5.494  10.773  0.00  0.00    -0.223 NA
ATOM      8  C   UNL     1      20.877   6.060  10.827  0.00  0.00    +0.220 A 
ATOM      9  N   UNL     1      20.119   6.057  11.987  0.00  0.00    -0.283 N 
ATOM     36  H   UNL     1      19.196   6.491  11.988  0.00  0.00    +0.155 HD
ATOM     37  N   UNL     1      20.347   6.630   9.725  0.00  0.00    -0.214 NA
BRANCH   4   3
ATOM      1  C   UNL     1      20.244   8.930   5.435  0.00  0.00    +0.020 A 
ATOM      2  C   UNL     1      20.964   8.326   6.533  0.00  0.00    +0.013 A 
ATOM      3  C   UNL     1      20.328   7.323   7.379  0.00  0.00    +0.019 A 
ATOM     38  C   UNL     1      18.954   6.949   7.083  0.00  0.00    +0.120 A 
ATOM     39  N   UNL     1      18.285   7.548   6.020  0.00  0.00    -0.263 NA
ATOM     40  C   UNL     1      18.886   8.516   5.201  0.00  0.00    +0.111 A 
ENDBRANCH   4   3
ENDBRANCH  10   9
BRANCH  12  13
ATOM     13  N   UNL     1      20.214   2.175  15.098  0.00  0.00    -0.281 N 
ATOM     14  C   UNL     1      21.001   1.044  15.241  0.00  0.00    +0.248 C 
ATOM     30  O   UNL     1      22.152   0.948  14.842  0.00  0.00    -0.270 OA
ATOM     31  H   UNL     1      19.220   2.058  15.297  0.00  0.00    +0.155 HD
BRANCH  14  15
ATOM     15  C   UNL     1      20.421  -0.159  15.912  0.00  0.00    +0.037 A 
ATOM     16  C   UNL     1      21.113  -1.450  15.888  0.00  0.00    +0.013 A 
ATOM     17  C   UNL     1      20.523  -2.599  16.528  0.00  0.00    +0.005 A 
ATOM     18  C   UNL     1      19.233  -2.461  17.199  0.00  0.00    -0.033 A 
ATOM     28  C   UNL     1      18.570  -1.168  17.212  0.00  0.00    +0.005 A 
ATOM     29  C   UNL     1      19.145  -0.040  16.585  0.00  0.00    +0.013 A 
BRANCH  18  19
ATOM     19  C   UNL     1      18.519  -3.639  17.890  0.00  0.00    +0.119 C 
BRANCH  19  20
ATOM     20  N   UNL     1      17.907  -3.378  19.226  0.00  0.00    -0.302 NA
ATOM     21  C   UNL     1      18.696  -4.040  20.359  0.00  0.00    +0.066 C 
ATOM     22  C   UNL     1      18.053  -3.738  21.753  0.00  0.00    -0.064 C 
ATOM     23  N   UNL     1      16.600  -4.213  21.755  0.00  0.00    +0.379 N 
ATOM     24  C   UNL     1      16.010  -3.984  23.082  0.00  0.00    -0.096 C 
ATOM     25  H   UNL     1      16.603  -5.313  21.572  0.00  0.00    -0.082 HD
ATOM     26  C   UNL     1      15.808  -3.562  20.630  0.00  0.00    -0.064 C 
ATOM     27  C   UNL     1      16.472  -3.843  19.252  0.00  0.00    +0.066 C 
ENDBRANCH  19  20
ENDBRANCH  18  19
ENDBRANCH  14  15
ENDBRANCH  12  13
TORSDOF 6
ENDMDL
MODEL 4
REMARK VINA RESULT:      -7.8     15.047     18.416
REMARK  Name = C:\Users\Docking\Desktop\test protocol\1iep_ligandH.pdb
REMARK  8 active torsions:
REMARK  status: ('A' for Active; 'I' for Inactive)
REMARK    1  A    between atoms: _5  and  _11
REMARK    2  A    between atoms: _19  and  _21
REMARK    3  A    between atoms: _22  and  _66
REMARK    4  A    between atoms: _27  and  _30
REMARK    5  A    between atoms: _32  and  _33
REMARK    6  A    between atoms: _38  and  _43
REMARK    7  A    between atoms: _43  and  _46
REMARK    8  A    between atoms: _53  and  _55
REMARK                            x       y       z     vdW  Elec       q    Type
REMARK                         _______ _______ _______ _____ _____    ______ ____
ROOT
ATOM     10  C   UNL     1      18.140  -2.138  17.705  0.00  0.00    +0.038 A 
ATOM     11  C   UNL     1      18.614  -0.926  17.140  0.00  0.00    +0.047 A 
ATOM     12  C   UNL     1      18.436   0.344  17.827  0.00  0.00    +0.035 A 
ATOM     32  C   UNL     1      17.774   0.343  19.089  0.00  0.00    +0.024 A 
ATOM     33  C   UNL     1      17.285  -0.880  19.677  0.00  0.00    +0.007 A 
ATOM     34  C   UNL     1      17.455  -2.135  19.003  0.00  0.00    -0.029 A 
ATOM     35  C   UNL     1      16.905  -3.414  19.677  0.00  0.00    +0.045 C 
ENDROOT
BRANCH  10   9
ATOM      4  C   UNL     1      16.888  -5.324  14.341  0.00  0.00    +0.077 A 
ATOM      5  C   UNL     1      15.728  -4.567  13.971  0.00  0.00    +0.048 A 
ATOM      6  C   UNL     1      15.485  -3.366  14.675  0.00  0.00    +0.116 A 
ATOM      7  N   UNL     1      16.345  -2.963  15.674  0.00  0.00    -0.223 NA
ATOM      8  C   UNL     1      17.455  -3.719  16.007  0.00  0.00    +0.220 A 
ATOM      9  N   UNL     1      18.338  -3.328  17.002  0.00  0.00    -0.283 N 
ATOM     36  H   UNL     1      19.140  -3.917  17.223  0.00  0.00    +0.155 HD
ATOM     37  N   UNL     1      17.708  -4.870  15.350  0.00  0.00    -0.214 NA
BRANCH   4   3
ATOM      1  C   UNL     1      16.956  -9.068  13.209  0.00  0.00    +0.020 A 
ATOM      2  C   UNL     1      16.534  -7.851  13.864  0.00  0.00    +0.013 A 
ATOM      3  C   UNL     1      17.281  -6.613  13.687  0.00  0.00    +0.019 A 
ATOM     38  C   UNL     1      18.460  -6.639  12.833  0.00  0.00    +0.120 A 
ATOM     39  N   UNL     1      18.843  -7.826  12.217  0.00  0.00    -0.263 NA
ATOM     40  C   UNL     1      18.133  -9.025  12.381  0.00  0.00    +0.111 A 
ENDBRANCH   4   3
ENDBRANCH  10   9
BRANCH  12  13
ATOM     13  N   UNL     1      18.889   1.607  17.300  0.00  0.00    -0.281 N 
ATOM     14  C   UNL     1      20.193   2.045  17.139  0.00  0.00    +0.248 C 
ATOM     30  O   UNL     1      21.171   1.497  17.627  0.00  0.00    -0.270 OA
ATOM     31  H   UNL     1      18.159   2.258  17.009  0.00  0.00    +0.155 HD
BRANCH  14  15
ATOM     15  C   UNL     1      20.447   3.278  16.333  0.00  0.00    +0.037 A 
ATOM     16  C   UNL     1      20.712   4.567  16.978  0.00  0.00    +0.013 A 
ATOM     17  C   UNL     1      20.937   5.744  16.177  0.00  0.00    +0.005 A 
ATOM     18  C   UNL     1      20.899   5.636  14.720  0.00  0.00    -0.033 A 
ATOM     28  C   UNL     1      20.640   4.345  14.107  0.00  0.00    +0.005 A 
ATOM     29  C   UNL     1      20.418   3.189  14.889  0.00  0.00    +0.013 A 
BRANCH  18  19
ATOM     19  C   UNL     1      21.107   6.844  13.787  0.00  0.00    +0.119 C 
BRANCH  19  20
ATOM     20  N   UNL     1      22.510   7.310  13.574  0.00  0.00    -0.302 NA
ATOM     21  C   UNL     1      22.856   8.513  14.455  0.00  0.00    +0.066 C 
ATOM     22  C   UNL     1      24.334   8.973  14.235  0.00  0.00    -0.064 C 
ATOM     23  N   UNL     1      24.548   9.305  12.757  0.00  0.00    +0.379 N 
ATOM     24  C   UNL     1      25.920   9.793  12.557  0.00  0.00    -0.096 C 
ATOM     25  H   UNL     1      23.852  10.134  12.493  0.00  0.00    -0.082 HD
ATOM     26  C   UNL     1      24.203   8.114  11.873  0.00  0.00    -0.064 C 
ATOM     27  C   UNL     1      22.742   7.646  12.121  0.00  0.00    +0.066 C 
ENDBRANCH  19  20
ENDBRANCH  18  19
ENDBRANCH  14  15
ENDBRANCH  12  13
TORSDOF 6
ENDMDL
MODEL 5
REMARK VINA RESULT:      -7.8     16.661     21.438
REMARK  Name = C:\Users\Docking\Desktop\test protocol\1iep_ligandH.pdb
REMARK  8 active torsions:
REMARK  status: ('A' for Active; 'I' for Inactive)
REMARK    1  A    between atoms: _5  and  _11
REMARK    2  A    between atoms: _19  and  _21
REMARK    3  A    between atoms: _22  and  _66
REMARK    4  A    between atoms: _27  and  _30
REMARK    5  A    between atoms: _32  and  _33
REMARK    6  A    between atoms: _38  and  _43
REMARK    7  A    between atoms: _43  and  _46
REMARK    8  A    between atoms: _53  and  _55
REMARK                            x       y       z     vdW  Elec       q    Type
REMARK                         _______ _______ _______ _____ _____    ______ ____
ROOT
ATOM     10  C   UNL     1      18.590   0.384  16.748  0.00  0.00    +0.038 A 
ATOM     11  C   UNL     1      18.375  -0.832  16.051  0.00  0.00    +0.047 A 
ATOM     12  C   UNL     1      18.106  -2.071  16.765  0.00  0.00    +0.035 A 
ATOM     32  C   UNL     1      18.059  -2.033  18.189  0.00  0.00    +0.024 A 
ATOM     33  C   UNL     1      18.277  -0.805  18.914  0.00  0.00    +0.007 A 
ATOM     34  C   UNL     1      18.546   0.419  18.215  0.00  0.00    -0.029 A 
ATOM     35  C   UNL     1      18.777   1.704  19.043  0.00  0.00    +0.045 C 
ENDROOT
BRANCH  10   9
ATOM      4  C   UNL     1      21.554   3.342  14.401  0.00  0.00    +0.077 A 
ATOM      5  C   UNL     1      22.695   2.522  14.688  0.00  0.00    +0.048 A 
ATOM      6  C   UNL     1      22.478   1.351  15.449  0.00  0.00    +0.116 A 
ATOM      7  N   UNL     1      21.210   1.034  15.884  0.00  0.00    -0.223 NA
ATOM      8  C   UNL     1      20.131   1.847  15.591  0.00  0.00    +0.220 A 
ATOM      9  N   UNL     1      18.845   1.543  16.012  0.00  0.00    -0.283 N 
ATOM     36  H   UNL     1      18.077   2.173  15.781  0.00  0.00    +0.155 HD
ATOM     37  N   UNL     1      20.312   2.972  14.867  0.00  0.00    -0.214 NA
BRANCH   4   3
ATOM      1  C   UNL     1      20.814   6.145  11.775  0.00  0.00    +0.020 A 
ATOM      2  C   UNL     1      20.706   4.907  12.511  0.00  0.00    +0.013 A 
ATOM      3  C   UNL     1      21.621   4.609  13.606  0.00  0.00    +0.019 A 
ATOM     38  C   UNL     1      22.641   5.593  13.933  0.00  0.00    +0.120 A 
ATOM     39  N   UNL     1      22.722   6.776  13.206  0.00  0.00    -0.263 NA
ATOM     40  C   UNL     1      21.848   7.073  12.149  0.00  0.00    +0.111 A 
ENDBRANCH   4   3
ENDBRANCH  10   9
BRANCH  12  13
ATOM     13  N   UNL     1      17.887  -3.338  16.112  0.00  0.00    -0.281 N 
ATOM     14  C   UNL     1      16.851  -3.691  15.264  0.00  0.00    +0.248 C 
ATOM     30  O   UNL     1      15.833  -3.034  15.105  0.00  0.00    -0.270 OA
ATOM     31  H   UNL     1      18.581  -4.062  16.299  0.00  0.00    +0.155 HD
BRANCH  14  15
ATOM     15  C   UNL     1      16.954  -4.966  14.490  0.00  0.00    +0.037 A 
ATOM     16  C   UNL     1      15.900  -5.981  14.555  0.00  0.00    +0.013 A 
ATOM     17  C   UNL     1      16.033  -7.209  13.811  0.00  0.00    +0.005 A 
ATOM     18  C   UNL     1      17.225  -7.428  12.995  0.00  0.00    -0.033 A 
ATOM     28  C   UNL     1      18.252  -6.401  12.945  0.00  0.00    +0.005 A 
ATOM     29  C   UNL     1      18.127  -5.196  13.673  0.00  0.00    +0.013 A 
BRANCH  18  19
ATOM     19  C   UNL     1      17.460  -8.717  12.186  0.00  0.00    +0.119 C 
BRANCH  19  20
ATOM     20  N   UNL     1      16.961  -9.995  12.776  0.00  0.00    -0.302 NA
ATOM     21  C   UNL     1      17.984 -10.628  13.723  0.00  0.00    +0.066 C 
ATOM     22  C   UNL     1      17.437 -11.952  14.349  0.00  0.00    -0.064 C 
ATOM     23  N   UNL     1      17.061 -12.925  13.229  0.00  0.00    +0.379 N 
ATOM     24  C   UNL     1      16.600 -14.192  13.815  0.00  0.00    -0.096 C 
ATOM     25  H   UNL     1      17.984 -13.138  12.643  0.00  0.00    -0.082 HD
ATOM     26  C   UNL     1      16.046 -12.302  12.281  0.00  0.00    -0.064 C 
ATOM     27  C   UNL     1      16.588 -10.971  11.688  0.00  0.00    +0.066 C 
ENDBRANCH  19  20
ENDBRANCH  18  19
ENDBRANCH  14  15
ENDBRANCH  12  13
TORSDOF 6
ENDMDL
