MODEL 1
REMARK VINA RESULT:      -7.9      0.000      0.000
REMARK  Name = C:\Users\Docking\Desktop\test protocol\1iep_ligandH.pdb
REMARK  8 active torsions:
REMARK  status: ('A' for Active; 'I' for Inactive)
REMARK    1  A    between atoms: _5  and  _11
REMARK    2  A    between atoms: _19  and  _21
REMARK    3  A    between atoms: _22  and  _66
REMARK    4  A    between atoms: _27  and  _30
REMARK    5  A    between atoms: _32  and  _33
REMARK    6  A    between atoms: _38  and  _43
REMARK    7  A    between atoms: _43  and  _46
REMARK    8  A    between atoms: _53  and  _55
REMARK                            x       y       z     vdW  Elec       q    Type
REMARK                         _______ _______ _______ _____ _____    ______ ____
ROOT
ATOM     10  C   UNL     1      24.869  12.566   5.110  0.00  0.00    +0.038 A 
ATOM     11  C   UNL     1      23.525  12.131   4.986  0.00  0.00    +0.047 A 
ATOM     12  C   UNL     1      22.692  12.567   3.876  0.00  0.00    +0.035 A 
ATOM     32  C   UNL     1      23.262  13.445   2.908  0.00  0.00    +0.024 A 
ATOM     33  C   UNL     1      24.626  13.899   3.020  0.00  0.00    +0.007 A 
ATOM     34  C   UNL     1      25.451  13.474   4.114  0.00  0.00    -0.029 A 
ATOM     35  C   UNL     1      26.905  13.997   4.186  0.00  0.00    +0.045 C 
ENDROOT
BRANCH  10   9
ATOM      4  C   UNL     1      26.612  13.074   9.553  0.00  0.00    +0.077 A 
ATOM      5  C   UNL     1      25.989  14.356   9.715  0.00  0.00    +0.048 A 
ATOM      6  C   UNL     1      25.235  14.852   8.629  0.00  0.00    +0.116 A 
ATOM      7  N   UNL     1      25.119  14.113   7.471  0.00  0.00    -0.223 NA
ATOM      8  C   UNL     1      25.734  12.881   7.348  0.00  0.00    +0.220 A 
ATOM      9  N   UNL     1      25.624  12.117   6.196  0.00  0.00    -0.283 N 
ATOM     36  H   UNL     1      26.099  11.216   6.141  0.00  0.00    +0.155 HD
ATOM     37  N   UNL     1      26.461  12.385   8.370  0.00  0.00    -0.214 NA
BRANCH   4   3
ATOM      1  C   UNL     1      27.707  10.971  12.665  0.00  0.00    +0.020 A 
ATOM      2  C   UNL     1      26.864  11.587  11.666  0.00  0.00    +0.013 A 
ATOM      3  C   UNL     1      27.439  12.413  10.613  0.00  0.00    +0.019 A 
ATOM     38  C   UNL     1      28.883  12.598  10.597  0.00  0.00    +0.120 A 
ATOM     39  N   UNL     1      29.669  11.994  11.573  0.00  0.00    -0.263 NA
ATOM     40  C   UNL     1      29.127  11.198  12.593  0.00  0.00    +0.111 A 
ENDBRANCH   4   3
ENDBRANCH  10   9
BRANCH  12  13
ATOM     13  N   UNL     1      21.319  12.164   3.702  0.00  0.00    -0.281 N 
ATOM     14  C   UNL     1      20.837  10.919   3.333  0.00  0.00    +0.248 C 
ATOM     30  O   UNL     1      21.527  10.015   2.886  0.00  0.00    -0.270 OA
ATOM     31  H   UNL     1      20.617  12.884   3.872  0.00  0.00    +0.155 HD
BRANCH  14  15
ATOM     15  C   UNL     1      19.374  10.643   3.465  0.00  0.00    +0.037 A 
ATOM     16  C   UNL     1      18.866   9.698   4.463  0.00  0.00    +0.013 A 
ATOM     17  C   UNL     1      17.452   9.437   4.558  0.00  0.00    +0.005 A 
ATOM     18  C   UNL     1      16.534  10.124   3.653  0.00  0.00    -0.033 A 
ATOM     28  C   UNL     1      17.064  11.060   2.676  0.00  0.00    +0.005 A 
ATOM     29  C   UNL     1      18.450  11.318   2.579  0.00  0.00    +0.013 A 
BRANCH  18  19
ATOM     19  C   UNL     1      15.012   9.891   3.669  0.00  0.00    +0.119 C 
BRANCH  19  20
ATOM     20  N   UNL     1      14.275  10.096   2.387  0.00  0.00    -0.302 NA
ATOM     21  C   UNL     1      12.772   9.847   2.542  0.00  0.00    +0.066 C 
ATOM     22  C   UNL     1      12.013  10.088   1.196  0.00  0.00    -0.064 C 
ATOM     23  N   UNL     1      12.603   9.183   0.112  0.00  0.00    +0.379 N 
ATOM     24  C   UNL     1      11.854   9.365  -1.140  0.00  0.00    -0.096 C 
ATOM     25  H   UNL     1      12.463   8.127   0.440  0.00  0.00    -0.082 HD
ATOM     26  C   UNL     1      14.098   9.423  -0.047  0.00  0.00    -0.064 C 
ATOM     27  C   UNL     1      14.838   9.209   1.303  0.00  0.00    +0.066 C 
ENDBRANCH  19  20
ENDBRANCH  18  19
ENDBRANCH  14  15
ENDBRANCH  12  13
TORSDOF 6
ENDMDL
MODEL 2
REMARK VINA RESULT:      -7.7     13.120     16.268
REMARK  Name = C:\Users\Docking\Desktop\test protocol\1iep_ligandH.pdb
REMARK  8 active torsions:
REMARK  status: ('A' for Active; 'I' for Inactive)
REMARK    1  A    between atoms: _5  and  _11
REMARK    2  A    between atoms: _19  and  _21
REMARK    3  A    between atoms: _22  and  _66
REMARK    4  A    between atoms: _27  and  _30
REMARK    5  A    between atoms: _32  and  _33
REMARK    6  A    between atoms: _38  and  _43
REMARK    7  A    between atoms: _43  and  _46
REMARK    8  A    between atoms: _53  and  _55
REMARK                            x       y       z     vdW  Elec       q    Type
REMARK                         _______ _______ _______ _____ _____    ______ ____
ROOT
ATOM     10  C   UNL     1      20.516   5.445  13.127  0.00  0.00    +0.038 A 
ATOM     11  C   UNL     1      20.021   4.160  13.469  0.00  0.00    +0.047 A 
ATOM     12  C   UNL     1      20.559   3.424  14.603  0.00  0.00    +0.035 A 
ATOM     32  C   UNL     1      21.599   4.027  15.368  0.00  0.00    +0.024 A 
ATOM     33  C   UNL     1      22.115   5.331  15.034  0.00  0.00    +0.007 A 
ATOM     34  C   UNL     1      21.590   6.061  13.915  0.00  0.00    -0.029 A 
ATOM     35  C   UNL     1      22.186   7.453  13.599  0.00  0.00    +0.045 C 
ENDROOT
BRANCH  10   9
ATOM      4  C   UNL     1      20.599   6.808   8.526  0.00  0.00    +0.077 A 
ATOM      5  C   UNL     1      21.863   6.170   8.298  0.00  0.00    +0.048 A 
ATOM      6  C   UNL     1      22.462   5.507   9.392  0.00  0.00    +0.116 A 
ATOM      7  N   UNL     1      21.835   5.491  10.619  0.00  0.00    -0.223 NA
ATOM      8  C   UNL     1      20.616   6.118  10.805  0.00  0.00    +0.220 A 
ATOM      9  N   UNL     1      19.964   6.107  12.028  0.00  0.00    -0.283 N 
ATOM     36  H   UNL     1      19.070   6.588  12.127  0.00  0.00    +0.155 HD
ATOM     37  N   UNL     1      20.024   6.758   9.776  0.00  0.00    -0.214 NA
BRANCH   4   3
ATOM      1  C   UNL     1      17.697   8.295   6.364  0.00  0.00    +0.020 A 
ATOM      2  C   UNL     1      18.382   7.567   7.407  0.00  0.00    +0.013 A 
ATOM      3  C   UNL     1      19.839   7.545   7.467  0.00  0.00    +0.019 A 
ATOM     38  C   UNL     1      20.577   8.277   6.449  0.00  0.00    +0.120 A 
ATOM     39  N   UNL     1      19.890   8.968   5.456  0.00  0.00    -0.263 NA
ATOM     40  C   UNL     1      18.489   8.995   5.387  0.00  0.00    +0.111 A 
ENDBRANCH   4   3
ENDBRANCH  10   9
BRANCH  12  13
ATOM     13  N   UNL     1      20.102   2.114  14.993  0.00  0.00    -0.281 N 
ATOM     14  C   UNL     1      20.860   0.972  15.194  0.00  0.00    +0.248 C 
ATOM     30  O   UNL     1      22.029   0.851  14.859  0.00  0.00    -0.270 OA
ATOM     31  H   UNL     1      19.097   2.016  15.139  0.00  0.00    +0.155 HD
BRANCH  14  15
ATOM     15  C   UNL     1      20.224  -0.212  15.848  0.00  0.00    +0.037 A 
ATOM     16  C   UNL     1      20.831  -1.542  15.768  0.00  0.00    +0.013 A 
ATOM     17  C   UNL     1      20.188  -2.670  16.394  0.00  0.00    +0.005 A 
ATOM     18  C   UNL     1      18.929  -2.471  17.108  0.00  0.00    -0.033 A 
ATOM     28  C   UNL     1      18.350  -1.139  17.176  0.00  0.00    +0.005 A 
ATOM     29  C   UNL     1      18.978  -0.032  16.563  0.00  0.00    +0.013 A 
BRANCH  18  19
ATOM     19  C   UNL     1      18.162  -3.621  17.787  0.00  0.00    +0.119 C 
BRANCH  19  20
ATOM     20  N   UNL     1      17.625  -3.369  19.158  0.00  0.00    -0.302 NA
ATOM     21  C   UNL     1      18.462  -4.061  20.238  0.00  0.00    +0.066 C 
ATOM     22  C   UNL     1      17.900  -3.768  21.668  0.00  0.00    -0.064 C 
ATOM     23  N   UNL     1      16.440  -4.219  21.741  0.00  0.00    +0.379 N 
ATOM     24  C   UNL     1      15.927  -3.999  23.101  0.00  0.00    -0.096 C 
ATOM     25  H   UNL     1      16.415  -5.316  21.544  0.00  0.00    -0.082 HD
ATOM     26  C   UNL     1      15.602  -3.538  20.669  0.00  0.00    -0.064 C 
ATOM     27  C   UNL     1      16.186  -3.811  19.254  0.00  0.00    +0.066 C 
ENDBRANCH  19  20
ENDBRANCH  18  19
ENDBRANCH  14  15
ENDBRANCH  12  13
TORSDOF 6
ENDMDL
MODEL 3
REMARK VINA RESULT:      -7.7      8.501     10.081
REMARK  Name = C:\Users\Docking\Desktop\test protocol\1iep_ligandH.pdb
REMARK  8 active torsions:
REMARK  status: ('A' for Active; 'I' for Inactive)
REMARK    1  A    between atoms: _5  and  _11
REMARK    2  A    between atoms: _19  and  _21
REMARK    3  A    between atoms: _22  and  _66
REMARK    4  A    between atoms: _27  and  _30
REMARK    5  A    between atoms: _32  and  _33
REMARK    6  A    between atoms: _38  and  _43
REMARK    7  A    between atoms: _43  and  _46
REMARK    8  A    between atoms: _53  and  _55
REMARK                            x       y       z     vdW  Elec       q    Type
REMARK                         _______ _______ _______ _____ _____    ______ ____
ROOT
ATOM     10  C   UNL     1      21.790   3.884  11.677  0.00  0.00    +0.038 A 
ATOM     11  C   UNL     1      21.201   4.619  10.617  0.00  0.00    +0.047 A 
ATOM     12  C   UNL     1      20.794   6.004  10.796  0.00  0.00    +0.035 A 
ATOM     32  C   UNL     1      21.005   6.611  12.069  0.00  0.00    +0.024 A 
ATOM     33  C   UNL     1      21.601   5.878  13.158  0.00  0.00    +0.007 A 
ATOM     34  C   UNL     1      22.002   4.511  12.988  0.00  0.00    -0.029 A 
ATOM     35  C   UNL     1      22.630   3.772  14.192  0.00  0.00    +0.045 C 
ENDROOT
BRANCH  10   9
ATOM      4  C   UNL     1      24.868   0.565  10.082  0.00  0.00    +0.077 A 
ATOM      5  C   UNL     1      25.803   1.559   9.639  0.00  0.00    +0.048 A 
ATOM      6  C   UNL     1      25.450   2.913   9.835  0.00  0.00    +0.116 A 
ATOM      7  N   UNL     1      24.250   3.238  10.429  0.00  0.00    -0.223 NA
ATOM      8  C   UNL     1      23.370   2.254  10.843  0.00  0.00    +0.220 A 
ATOM      9  N   UNL     1      22.161   2.557  11.450  0.00  0.00    -0.283 N 
ATOM     36  H   UNL     1      21.537   1.803  11.734  0.00  0.00    +0.155 HD
ATOM     37  N   UNL     1      23.683   0.953  10.666  0.00  0.00    -0.214 NA
BRANCH   4   3
ATOM      1  C   UNL     1      25.959  -2.934   8.715  0.00  0.00    +0.020 A 
ATOM      2  C   UNL     1      25.760  -1.505   8.795  0.00  0.00    +0.013 A 
ATOM      3  C   UNL     1      25.098  -0.908   9.948  0.00  0.00    +0.019 A 
ATOM     38  C   UNL     1      24.645  -1.792  11.011  0.00  0.00    +0.120 A 
ATOM     39  N   UNL     1      24.849  -3.165  10.906  0.00  0.00    -0.263 NA
ATOM     40  C   UNL     1      25.483  -3.750   9.801  0.00  0.00    +0.111 A 
ENDBRANCH   4   3
ENDBRANCH  10   9
BRANCH  12  13
ATOM     13  N   UNL     1      20.184   6.798   9.759  0.00  0.00    -0.281 N 
ATOM     14  C   UNL     1      20.354   6.685   8.389  0.00  0.00    +0.248 C 
ATOM     30  O   UNL     1      21.228   6.018   7.853  0.00  0.00    -0.270 OA
ATOM     31  H   UNL     1      19.549   7.532  10.072  0.00  0.00    +0.155 HD
BRANCH  14  15
ATOM     15  C   UNL     1      19.430   7.432   7.482  0.00  0.00    +0.037 A 
ATOM     16  C   UNL     1      18.359   8.277   8.017  0.00  0.00    +0.013 A 
ATOM     17  C   UNL     1      17.471   8.972   7.120  0.00  0.00    +0.005 A 
ATOM     18  C   UNL     1      17.651   8.827   5.678  0.00  0.00    -0.033 A 
ATOM     28  C   UNL     1      18.724   7.987   5.174  0.00  0.00    +0.005 A 
ATOM     29  C   UNL     1      19.597   7.302   6.050  0.00  0.00    +0.013 A 
BRANCH  18  19
ATOM     19  C   UNL     1      16.737   9.516   4.647  0.00  0.00    +0.119 C 
BRANCH  19  20
ATOM     20  N   UNL     1      17.331   9.842   3.316  0.00  0.00    -0.302 NA
ATOM     21  C   UNL     1      18.092  11.171   3.338  0.00  0.00    +0.066 C 
ATOM     22  C   UNL     1      18.726  11.486   1.944  0.00  0.00    -0.064 C 
ATOM     23  N   UNL     1      17.627  11.508   0.880  0.00  0.00    +0.379 N 
ATOM     24  C   UNL     1      18.212  11.861  -0.422  0.00  0.00    -0.096 C 
ATOM     25  H   UNL     1      16.906  12.312   1.156  0.00  0.00    -0.082 HD
ATOM     26  C   UNL     1      16.864  10.192   0.854  0.00  0.00    -0.064 C 
ATOM     27  C   UNL     1      16.262   9.874   2.251  0.00  0.00    +0.066 C 
ENDBRANCH  19  20
ENDBRANCH  18  19
ENDBRANCH  14  15
ENDBRANCH  12  13
TORSDOF 6
ENDMDL
MODEL 4
REMARK VINA RESULT:      -7.6     14.742     18.902
REMARK  Name = C:\Users\Docking\Desktop\test protocol\1iep_ligandH.pdb
REMARK  8 active torsions:
REMARK  status: ('A' for Active; 'I' for Inactive)
REMARK    1  A    between atoms: _5  and  _11
REMARK    2  A    between atoms: _19  and  _21
REMARK    3  A    between atoms: _22  and  _66
REMARK    4  A    between atoms: _27  and  _30
REMARK    5  A    between atoms: _32  and  _33
REMARK    6  A    between atoms: _38  and  _43
REMARK    7  A    between atoms: _43  and  _46
REMARK    8  A    between atoms: _53  and  _55
REMARK                            x       y       z     vdW  Elec       q    Type
REMARK                         _______ _______ _______ _____ _____    ______ ____
ROOT
ATOM     10  C   UNL     1      18.312  -1.863  17.518  0.00  0.00    +0.038 A 
ATOM     11  C   UNL     1      18.713  -0.575  17.081  0.00  0.00    +0.047 A 
ATOM     12  C   UNL     1      18.344   0.620  17.824  0.00  0.00    +0.035 A 
ATOM     32  C   UNL     1      17.568   0.466  19.009  0.00  0.00    +0.024 A 
ATOM     33  C   UNL     1      17.151  -0.836  19.467  0.00  0.00    +0.007 A 
ATOM     34  C   UNL     1      17.510  -2.018  18.737  0.00  0.00    -0.029 A 
ATOM     35  C   UNL     1      17.030  -3.388  19.272  0.00  0.00    +0.045 C 
ENDROOT
BRANCH  10   9
ATOM      4  C   UNL     1      17.490  -5.177  14.144  0.00  0.00    +0.077 A 
ATOM      5  C   UNL     1      16.178  -4.663  13.875  0.00  0.00    +0.048 A 
ATOM      6  C   UNL     1      15.750  -3.549  14.632  0.00  0.00    +0.116 A 
ATOM      7  N   UNL     1      16.580  -2.998  15.584  0.00  0.00    -0.223 NA
ATOM      8  C   UNL     1      17.839  -3.519  15.819  0.00  0.00    +0.220 A 
ATOM      9  N   UNL     1      18.694  -2.976  16.766  0.00  0.00    -0.283 N 
ATOM     36  H   UNL     1      19.612  -3.394  16.915  0.00  0.00    +0.155 HD
ATOM     37  N   UNL     1      18.271  -4.584  15.111  0.00  0.00    -0.214 NA
BRANCH   4   3
ATOM      1  C   UNL     1      17.908  -8.450  12.044  0.00  0.00    +0.020 A 
ATOM      2  C   UNL     1      17.282  -7.339  12.723  0.00  0.00    +0.013 A 
ATOM      3  C   UNL     1      18.086  -6.347  13.425  0.00  0.00    +0.019 A 
ATOM     38  C   UNL     1      19.533  -6.509  13.420  0.00  0.00    +0.120 A 
ATOM     39  N   UNL     1      20.107  -7.590  12.759  0.00  0.00    -0.263 NA
ATOM     40  C   UNL     1      19.343  -8.552  12.081  0.00  0.00    +0.111 A 
ENDBRANCH   4   3
ENDBRANCH  10   9
BRANCH  12  13
ATOM     13  N   UNL     1      18.715   1.955  17.424  0.00  0.00    -0.281 N 
ATOM     14  C   UNL     1      19.926   2.598  17.623  0.00  0.00    +0.248 C 
ATOM     30  O   UNL     1      20.807   2.196  18.369  0.00  0.00    -0.270 OA
ATOM     31  H   UNL     1      17.998   2.491  16.935  0.00  0.00    +0.155 HD
BRANCH  14  15
ATOM     15  C   UNL     1      20.190   3.880  16.902  0.00  0.00    +0.037 A 
ATOM     16  C   UNL     1      20.437   3.902  15.458  0.00  0.00    +0.013 A 
ATOM     17  C   UNL     1      20.706   5.151  14.789  0.00  0.00    +0.005 A 
ATOM     18  C   UNL     1      20.728   6.388  15.565  0.00  0.00    -0.033 A 
ATOM     28  C   UNL     1      20.475   6.338  16.996  0.00  0.00    +0.005 A 
ATOM     29  C   UNL     1      20.212   5.116  17.655  0.00  0.00    +0.013 A 
BRANCH  18  19
ATOM     19  C   UNL     1      21.028   7.763  14.939  0.00  0.00    +0.119 C 
BRANCH  19  20
ATOM     20  N   UNL     1      22.414   7.997  14.433  0.00  0.00    -0.302 NA
ATOM     21  C   UNL     1      23.036   9.263  15.029  0.00  0.00    +0.066 C 
ATOM     22  C   UNL     1      24.494   9.480  14.506  0.00  0.00    -0.064 C 
ATOM     23  N   UNL     1      24.480   9.550  12.978  0.00  0.00    +0.379 N 
ATOM     24  C   UNL     1      25.841   9.812  12.487  0.00  0.00    -0.096 C 
ATOM     25  H   UNL     1      23.842  10.416  12.686  0.00  0.00    -0.082 HD
ATOM     26  C   UNL     1      23.860   8.296  12.378  0.00  0.00    -0.064 C 
ATOM     27  C   UNL     1      22.422   8.074  12.926  0.00  0.00    +0.066 C 
ENDBRANCH  19  20
ENDBRANCH  18  19
ENDBRANCH  14  15
ENDBRANCH  12  13
TORSDOF 6
ENDMDL
MODEL 5
REMARK VINA RESULT:      -7.6      5.431     10.427
REMARK  Name = C:\Users\Docking\Desktop\test protocol\1iep_ligandH.pdb
REMARK  8 active torsions:
REMARK  status: ('A' for Active; 'I' for Inactive)
REMARK    1  A    between atoms: _5  and  _11
REMARK    2  A    between atoms: _19  and  _21
REMARK    3  A    between atoms: _22  and  _66
REMARK    4  A    between atoms: _27  and  _30
REMARK    5  A    between atoms: _32  and  _33
REMARK    6  A    between atoms: _38  and  _43
REMARK    7  A    between atoms: _43  and  _46
REMARK    8  A    between atoms: _53  and  _55
REMARK                            x       y       z     vdW  Elec       q    Type
REMARK                         _______ _______ _______ _____ _____    ______ ____
ROOT
ATOM     10  C   UNL     1      20.225  10.557   3.270  0.00  0.00    +0.038 A 
ATOM     11  C   UNL     1      20.660   9.806   4.391  0.00  0.00    +0.047 A 
ATOM     12  C   UNL     1      19.719   9.349   5.402  0.00  0.00    +0.035 A 
ATOM     32  C   UNL     1      18.341   9.674   5.237  0.00  0.00    +0.024 A 
ATOM     33  C   UNL     1      17.881  10.438   4.104  0.00  0.00    +0.007 A 
ATOM     34  C   UNL     1      18.806  10.893   3.105  0.00  0.00    -0.029 A 
ATOM     35  C   UNL     1      18.258  11.715   1.915  0.00  0.00    +0.045 C 
ENDROOT
BRANCH  10   9
ATOM      4  C   UNL     1      23.671  13.539   1.761  0.00  0.00    +0.077 A 
ATOM      5  C   UNL     1      23.556  14.359   2.933  0.00  0.00    +0.048 A 
ATOM      6  C   UNL     1      22.593  13.983   3.896  0.00  0.00    +0.116 A 
ATOM      7  N   UNL     1      21.809  12.868   3.693  0.00  0.00    -0.223 NA
ATOM      8  C   UNL     1      21.944  12.100   2.551  0.00  0.00    +0.220 A 
ATOM      9  N   UNL     1      21.172  10.970   2.330  0.00  0.00    -0.283 N 
ATOM     36  H   UNL     1      21.297  10.434   1.471  0.00  0.00    +0.155 HD
ATOM     37  N   UNL     1      22.856  12.439   1.616  0.00  0.00    -0.214 NA
BRANCH   4   3
ATOM      1  C   UNL     1      25.223  14.176  -1.772  0.00  0.00    +0.020 A 
ATOM      2  C   UNL     1      24.244  13.919  -0.742  0.00  0.00    +0.013 A 
ATOM      3  C   UNL     1      24.644  13.804   0.655  0.00  0.00    +0.019 A 
ATOM     38  C   UNL     1      26.054  13.958   0.978  0.00  0.00    +0.120 A 
ATOM     39  N   UNL     1      26.975  14.204  -0.035  0.00  0.00    -0.263 NA
ATOM     40  C   UNL     1      26.602  14.314  -1.383  0.00  0.00    +0.111 A 
ENDBRANCH   4   3
ENDBRANCH  10   9
BRANCH  12  13
ATOM     13  N   UNL     1      20.103   8.590   6.566  0.00  0.00    -0.281 N 
ATOM     14  C   UNL     1      19.816   7.265   6.851  0.00  0.00    +0.248 C 
ATOM     30  O   UNL     1      19.000   6.588   6.243  0.00  0.00    -0.270 OA
ATOM     31  H   UNL     1      20.653   9.089   7.264  0.00  0.00    +0.155 HD
BRANCH  14  15
ATOM     15  C   UNL     1      20.529   6.599   7.983  0.00  0.00    +0.037 A 
ATOM     16  C   UNL     1      19.806   5.786   8.964  0.00  0.00    +0.013 A 
ATOM     17  C   UNL     1      20.515   5.169  10.057  0.00  0.00    +0.005 A 
ATOM     18  C   UNL     1      21.958   5.362  10.173  0.00  0.00    -0.033 A 
ATOM     28  C   UNL     1      22.652   6.169   9.183  0.00  0.00    +0.005 A 
ATOM     29  C   UNL     1      21.960   6.776   8.112  0.00  0.00    +0.013 A 
BRANCH  18  19
ATOM     19  C   UNL     1      22.793   4.759  11.318  0.00  0.00    +0.119 C 
BRANCH  19  20
ATOM     20  N   UNL     1      22.456   5.187  12.709  0.00  0.00    -0.302 NA
ATOM     21  C   UNL     1      21.390   4.289  13.344  0.00  0.00    +0.066 C 
ATOM     22  C   UNL     1      21.066   4.737  14.806  0.00  0.00    -0.064 C 
ATOM     23  N   UNL     1      20.610   6.197  14.800  0.00  0.00    +0.379 N 
ATOM     24  C   UNL     1      20.249   6.604  16.166  0.00  0.00    -0.096 C 
ATOM     25  H   UNL     1      19.691   6.262  14.173  0.00  0.00    -0.082 HD
ATOM     26  C   UNL     1      21.663   7.096  14.168  0.00  0.00    -0.064 C 
ATOM     27  C   UNL     1      22.000   6.625  12.726  0.00  0.00    +0.066 C 
ENDBRANCH  19  20
ENDBRANCH  18  19
ENDBRANCH  14  15
ENDBRANCH  12  13
TORSDOF 6
ENDMDL
