MODEL 1
REMARK VINA RESULT:      -8.3      0.000      0.000
REMARK  Name = C:\Users\Docking\Desktop\test protocol\1iep_ligandH.pdb
REMARK  8 active torsions:
REMARK  status: ('A' for Active; 'I' for Inactive)
REMARK    1  A    between atoms: _5  and  _11
REMARK    2  A    between atoms: _19  and  _21
REMARK    3  A    between atoms: _22  and  _66
REMARK    4  A    between atoms: _27  and  _30
REMARK    5  A    between atoms: _32  and  _33
REMARK    6  A    between atoms: _38  and  _43
REMARK    7  A    between atoms: _43  and  _46
REMARK    8  A    between atoms: _53  and  _55
REMARK                            x       y       z     vdW  Elec       q    Type
REMARK                         _______ _______ _______ _____ _____    ______ ____
ROOT
ATOM     10  C   UNL     1      21.684   5.779  13.045  0.00  0.00    +0.038 A 
ATOM     11  C   UNL     1      21.004   6.159  11.860  0.00  0.00    +0.047 A 
ATOM     12  C   UNL     1      21.704   6.823  10.771  0.00  0.00    +0.035 A 
ATOM     32  C   UNL     1      23.097   7.082  10.921  0.00  0.00    +0.024 A 
ATOM     33  C   UNL     1      23.804   6.703  12.120  0.00  0.00    +0.007 A 
ATOM     34  C   UNL     1      23.118   6.050  13.198  0.00  0.00    -0.029 A 
ATOM     35  C   UNL     1      23.925   5.673  14.462  0.00  0.00    +0.045 C 
ENDROOT
BRANCH  10   9
ATOM      4  C   UNL     1      20.455   1.880  15.561  0.00  0.00    +0.077 A 
ATOM      5  C   UNL     1      21.300   1.032  14.771  0.00  0.00    +0.048 A 
ATOM      6  C   UNL     1      22.029   1.636  13.723  0.00  0.00    +0.116 A 
ATOM      7  N   UNL     1      21.914   2.990  13.490  0.00  0.00    -0.223 NA
ATOM      8  C   UNL     1      21.088   3.779  14.269  0.00  0.00    +0.220 A 
ATOM      9  N   UNL     1      20.963   5.144  14.059  0.00  0.00    -0.283 N 
ATOM     36  H   UNL     1      20.338   5.690  14.651  0.00  0.00    +0.155 HD
ATOM     37  N   UNL     1      20.380   3.225  15.276  0.00  0.00    -0.214 NA
BRANCH   4   3
ATOM      1  C   UNL     1      17.720   1.617  18.345  0.00  0.00    +0.020 A 
ATOM      2  C   UNL     1      18.490   2.135  17.238  0.00  0.00    +0.013 A 
ATOM      3  C   UNL     1      19.624   1.390  16.706  0.00  0.00    +0.019 A 
ATOM     38  C   UNL     1      19.955   0.114  17.321  0.00  0.00    +0.120 A 
ATOM     39  N   UNL     1      19.197  -0.360  18.387  0.00  0.00    -0.263 NA
ATOM     40  C   UNL     1      18.104   0.349  18.909  0.00  0.00    +0.111 A 
ENDBRANCH   4   3
ENDBRANCH  10   9
BRANCH  12  13
ATOM     13  N   UNL     1      21.064   7.239   9.547  0.00  0.00    -0.281 N 
ATOM     14  C   UNL     1      20.419   6.448   8.611  0.00  0.00    +0.248 C 
ATOM     30  O   UNL     1      20.479   5.227   8.579  0.00  0.00    -0.270 OA
ATOM     31  H   UNL     1      21.091   8.239   9.347  0.00  0.00    +0.155 HD
BRANCH  14  15
ATOM     15  C   UNL     1      19.599   7.107   7.550  0.00  0.00    +0.037 A 
ATOM     16  C   UNL     1      19.798   6.795   6.132  0.00  0.00    +0.013 A 
ATOM     17  C   UNL     1      19.005   7.458   5.127  0.00  0.00    +0.005 A 
ATOM     18  C   UNL     1      18.005   8.441   5.538  0.00  0.00    -0.033 A 
ATOM     28  C   UNL     1      17.825   8.728   6.951  0.00  0.00    +0.005 A 
ATOM     29  C   UNL     1      18.601   8.080   7.939  0.00  0.00    +0.013 A 
BRANCH  18  19
ATOM     19  C   UNL     1      17.129   9.212   4.533  0.00  0.00    +0.119 C 
BRANCH  19  20
ATOM     20  N   UNL     1      17.783   9.681   3.275  0.00  0.00    -0.302 NA
ATOM     21  C   UNL     1      18.656  10.917   3.507  0.00  0.00    +0.066 C 
ATOM     22  C   UNL     1      19.350  11.380   2.185  0.00  0.00    -0.064 C 
ATOM     23  N   UNL     1      18.285  11.661   1.124  0.00  0.00    +0.379 N 
ATOM     24  C   UNL     1      18.931  12.152  -0.102  0.00  0.00    -0.096 C 
ATOM     25  H   UNL     1      17.629  12.475   1.511  0.00  0.00    -0.082 HD
ATOM     26  C   UNL     1      17.411  10.437   0.889  0.00  0.00    -0.064 C 
ATOM     27  C   UNL     1      16.749   9.968   2.214  0.00  0.00    +0.066 C 
ENDBRANCH  19  20
ENDBRANCH  18  19
ENDBRANCH  14  15
ENDBRANCH  12  13
TORSDOF 6
ENDMDL
MODEL 2
REMARK VINA RESULT:      -8.0      6.857     10.557
REMARK  Name = C:\Users\Docking\Desktop\test protocol\1iep_ligandH.pdb
REMARK  8 active torsions:
REMARK  status: ('A' for Active; 'I' for Inactive)
REMARK    1  A    between atoms: _5  and  _11
REMARK    2  A    between atoms: _19  and  _21
REMARK    3  A    between atoms: _22  and  _66
REMARK    4  A    between atoms: _27  and  _30
REMARK    5  A    between atoms: _32  and  _33
REMARK    6  A    between atoms: _38  and  _43
REMARK    7  A    between atoms: _43  and  _46
REMARK    8  A    between atoms: _53  and  _55
REMARK                            x       y       z     vdW  Elec       q    Type
REMARK                         _______ _______ _______ _____ _____    ______ ____
ROOT
ATOM     10  C   UNL     1      17.927  -1.628  17.878  0.00  0.00    +0.038 A 
ATOM     11  C   UNL     1      18.407  -0.390  17.380  0.00  0.00    +0.047 A 
ATOM     12  C   UNL     1      18.188   0.850  18.108  0.00  0.00    +0.035 A 
ATOM     32  C   UNL     1      17.480   0.792  19.343  0.00  0.00    +0.024 A 
ATOM     33  C   UNL     1      16.985  -0.458  19.865  0.00  0.00    +0.007 A 
ATOM     34  C   UNL     1      17.195  -1.684  19.149  0.00  0.00    -0.029 A 
ATOM     35  C   UNL     1      16.636  -2.994  19.752  0.00  0.00    +0.045 C 
ENDROOT
BRANCH  10   9
ATOM      4  C   UNL     1      16.744  -4.788  14.464  0.00  0.00    +0.077 A 
ATOM      5  C   UNL     1      15.535  -4.082  14.148  0.00  0.00    +0.048 A 
ATOM      6  C   UNL     1      15.251  -2.915  14.892  0.00  0.00    +0.116 A 
ATOM      7  N   UNL     1      16.119  -2.494  15.876  0.00  0.00    -0.223 NA
ATOM      8  C   UNL     1      17.275  -3.198  16.157  0.00  0.00    +0.220 A 
ATOM      9  N   UNL     1      18.165  -2.788  17.137  0.00  0.00    -0.283 N 
ATOM     36  H   UNL     1      19.004  -3.339  17.320  0.00  0.00    +0.155 HD
ATOM     37  N   UNL     1      17.568  -4.317  15.462  0.00  0.00    -0.214 NA
BRANCH   4   3
ATOM      1  C   UNL     1      16.960  -8.488  13.214  0.00  0.00    +0.020 A 
ATOM      2  C   UNL     1      16.495  -7.312  13.913  0.00  0.00    +0.013 A 
ATOM      3  C   UNL     1      17.183  -6.036  13.764  0.00  0.00    +0.019 A 
ATOM     38  C   UNL     1      18.348  -5.983  12.894  0.00  0.00    +0.120 A 
ATOM     39  N   UNL     1      18.774  -7.132  12.235  0.00  0.00    -0.263 NA
ATOM     40  C   UNL     1      18.121  -8.366  12.371  0.00  0.00    +0.111 A 
ENDBRANCH   4   3
ENDBRANCH  10   9
BRANCH  12  13
ATOM     13  N   UNL     1      18.645   2.138  17.647  0.00  0.00    -0.281 N 
ATOM     14  C   UNL     1      19.938   2.635  17.652  0.00  0.00    +0.248 C 
ATOM     30  O   UNL     1      20.872   2.126  18.253  0.00  0.00    -0.270 OA
ATOM     31  H   UNL     1      17.927   2.758  17.272  0.00  0.00    +0.155 HD
BRANCH  14  15
ATOM     15  C   UNL     1      20.233   3.886  16.890  0.00  0.00    +0.037 A 
ATOM     16  C   UNL     1      20.611   3.843  15.475  0.00  0.00    +0.013 A 
ATOM     17  C   UNL     1      20.907   5.064  14.768  0.00  0.00    +0.005 A 
ATOM     18  C   UNL     1      20.824   6.340  15.476  0.00  0.00    -0.033 A 
ATOM     28  C   UNL     1      20.442   6.354  16.878  0.00  0.00    +0.005 A 
ATOM     29  C   UNL     1      20.152   5.159  17.574  0.00  0.00    +0.013 A 
BRANCH  18  19
ATOM     19  C   UNL     1      21.143   7.690  14.807  0.00  0.00    +0.119 C 
BRANCH  19  20
ATOM     20  N   UNL     1      22.491   7.841  14.182  0.00  0.00    -0.302 NA
ATOM     21  C   UNL     1      23.357   8.863  14.925  0.00  0.00    +0.066 C 
ATOM     22  C   UNL     1      24.771   8.992  14.271  0.00  0.00    -0.064 C 
ATOM     23  N   UNL     1      24.617   9.382  12.800  0.00  0.00    +0.379 N 
ATOM     24  C   UNL     1      25.946   9.561  12.197  0.00  0.00    -0.096 C 
ATOM     25  H   UNL     1      24.093  10.365  12.764  0.00  0.00    -0.082 HD
ATOM     26  C   UNL     1      23.755   8.373  12.054  0.00  0.00    -0.064 C 
ATOM     27  C   UNL     1      22.362   8.230  12.729  0.00  0.00    +0.066 C 
ENDBRANCH  19  20
ENDBRANCH  18  19
ENDBRANCH  14  15
ENDBRANCH  12  13
TORSDOF 6
ENDMDL
MODEL 3
REMARK VINA RESULT:      -7.8      3.390      5.062
REMARK  Name = C:\Users\Docking\Desktop\test protocol\1iep_ligandH.pdb
REMARK  8 active torsions:
REMARK  status: ('A' for Active; 'I' for Inactive)
REMARK    1  A    between atoms: _5  and  _11
REMARK    2  A    between atoms: _19  and  _21
REMARK    3  A    between atoms: _22  and  _66
REMARK    4  A    between atoms: _27  and  _30
REMARK    5  A    between atoms: _32  and  _33
REMARK    6  A    between atoms: _38  and  _43
REMARK    7  A    between atoms: _43  and  _46
REMARK    8  A    between atoms: _53  and  _55
REMARK                            x       y       z     vdW  Elec       q    Type
REMARK                         _______ _______ _______ _____ _____    ______ ____
ROOT
ATOM     10  C   UNL     1      21.958   6.190  12.734  0.00  0.00    +0.038 A 
ATOM     11  C   UNL     1      21.450   6.886  11.608  0.00  0.00    +0.047 A 
ATOM     12  C   UNL     1      21.622   6.365  10.261  0.00  0.00    +0.035 A 
ATOM     32  C   UNL     1      22.315   5.130  10.098  0.00  0.00    +0.024 A 
ATOM     33  C   UNL     1      22.839   4.410  11.232  0.00  0.00    +0.007 A 
ATOM     34  C   UNL     1      22.674   4.921  12.563  0.00  0.00    -0.029 A 
ATOM     35  C   UNL     1      23.263   4.110  13.741  0.00  0.00    +0.045 C 
ENDROOT
BRANCH  10   9
ATOM      4  C   UNL     1      23.178   9.175  16.290  0.00  0.00    +0.077 A 
ATOM      5  C   UNL     1      24.314   9.668  15.565  0.00  0.00    +0.048 A 
ATOM      6  C   UNL     1      24.554   9.122  14.284  0.00  0.00    +0.116 A 
ATOM      7  N   UNL     1      23.713   8.157  13.775  0.00  0.00    -0.223 NA
ATOM      8  C   UNL     1      22.627   7.702  14.500  0.00  0.00    +0.220 A 
ATOM      9  N   UNL     1      21.764   6.737  14.005  0.00  0.00    -0.283 N 
ATOM     36  H   UNL     1      20.978   6.423  14.574  0.00  0.00    +0.155 HD
ATOM     37  N   UNL     1      22.378   8.206  15.727  0.00  0.00    -0.214 NA
BRANCH   4   3
ATOM      1  C   UNL     1      22.179  11.471  19.295  0.00  0.00    +0.020 A 
ATOM      2  C   UNL     1      22.550  11.060  17.960  0.00  0.00    +0.013 A 
ATOM      3  C   UNL     1      22.792   9.655  17.654  0.00  0.00    +0.019 A 
ATOM     38  C   UNL     1      22.647   8.685  18.728  0.00  0.00    +0.120 A 
ATOM     39  N   UNL     1      22.290   9.110  20.004  0.00  0.00    -0.263 NA
ATOM     40  C   UNL     1      22.057  10.459  20.311  0.00  0.00    +0.111 A 
ENDBRANCH   4   3
ENDBRANCH  10   9
BRANCH  12  13
ATOM     13  N   UNL     1      21.135   7.031   9.078  0.00  0.00    -0.281 N 
ATOM     14  C   UNL     1      20.114   6.627   8.233  0.00  0.00    +0.248 C 
ATOM     30  O   UNL     1      19.605   5.517   8.246  0.00  0.00    -0.270 OA
ATOM     31  H   UNL     1      21.599   7.906   8.835  0.00  0.00    +0.155 HD
BRANCH  14  15
ATOM     15  C   UNL     1      19.595   7.592   7.216  0.00  0.00    +0.037 A 
ATOM     16  C   UNL     1      20.479   8.187   6.211  0.00  0.00    +0.013 A 
ATOM     17  C   UNL     1      19.956   9.128   5.253  0.00  0.00    +0.005 A 
ATOM     18  C   UNL     1      18.538   9.479   5.295  0.00  0.00    -0.033 A 
ATOM     28  C   UNL     1      17.682   8.870   6.300  0.00  0.00    +0.005 A 
ATOM     29  C   UNL     1      18.192   7.948   7.241  0.00  0.00    +0.013 A 
BRANCH  18  19
ATOM     19  C   UNL     1      17.898  10.490   4.326  0.00  0.00    +0.119 C 
BRANCH  19  20
ATOM     20  N   UNL     1      17.670  10.039   2.920  0.00  0.00    -0.302 NA
ATOM     21  C   UNL     1      18.358  10.955   1.904  0.00  0.00    +0.066 C 
ATOM     22  C   UNL     1      18.127  10.456   0.441  0.00  0.00    -0.064 C 
ATOM     23  N   UNL     1      16.625  10.372   0.164  0.00  0.00    +0.379 N 
ATOM     24  C   UNL     1      16.406   9.959  -1.230  0.00  0.00    -0.096 C 
ATOM     25  H   UNL     1      16.202  11.396   0.284  0.00  0.00    -0.082 HD
ATOM     26  C   UNL     1      15.933   9.465   1.171  0.00  0.00    -0.064 C 
ATOM     27  C   UNL     1      16.193   9.953   2.624  0.00  0.00    +0.066 C 
ENDBRANCH  19  20
ENDBRANCH  18  19
ENDBRANCH  14  15
ENDBRANCH  12  13
TORSDOF 6
ENDMDL
MODEL 4
REMARK VINA RESULT:      -7.8      5.049     10.328
REMARK  Name = C:\Users\Docking\Desktop\test protocol\1iep_ligandH.pdb
REMARK  8 active torsions:
REMARK  status: ('A' for Active; 'I' for Inactive)
REMARK    1  A    between atoms: _5  and  _11
REMARK    2  A    between atoms: _19  and  _21
REMARK    3  A    between atoms: _22  and  _66
REMARK    4  A    between atoms: _27  and  _30
REMARK    5  A    between atoms: _32  and  _33
REMARK    6  A    between atoms: _38  and  _43
REMARK    7  A    between atoms: _43  and  _46
REMARK    8  A    between atoms: _53  and  _55
REMARK                            x       y       z     vdW  Elec       q    Type
REMARK                         _______ _______ _______ _____ _____    ______ ____
ROOT
ATOM     10  C   UNL     1      17.648  -2.035  17.963  0.00  0.00    +0.038 A 
ATOM     11  C   UNL     1      18.214  -0.849  17.429  0.00  0.00    +0.047 A 
ATOM     12  C   UNL     1      18.031   0.435  18.089  0.00  0.00    +0.035 A 
ATOM     32  C   UNL     1      17.269   0.474  19.293  0.00  0.00    +0.024 A 
ATOM     33  C   UNL     1      16.685  -0.722  19.848  0.00  0.00    +0.007 A 
ATOM     34  C   UNL     1      16.860  -1.990  19.201  0.00  0.00    -0.029 A 
ATOM     35  C   UNL     1      16.206  -3.239  19.838  0.00  0.00    +0.045 C 
ENDROOT
BRANCH  10   9
ATOM      4  C   UNL     1      16.644  -5.143  14.446  0.00  0.00    +0.077 A 
ATOM      5  C   UNL     1      15.601  -4.307  13.925  0.00  0.00    +0.048 A 
ATOM      6  C   UNL     1      15.350  -3.089  14.595  0.00  0.00    +0.116 A 
ATOM      7  N   UNL     1      16.093  -2.742  15.703  0.00  0.00    -0.223 NA
ATOM      8  C   UNL     1      17.090  -3.572  16.181  0.00  0.00    +0.220 A 
ATOM      9  N   UNL     1      17.855  -3.240  17.289  0.00  0.00    -0.283 N 
ATOM     36  H   UNL     1      18.576  -3.883  17.614  0.00  0.00    +0.155 HD
ATOM     37  N   UNL     1      17.348  -4.742  15.560  0.00  0.00    -0.214 NA
BRANCH   4   3
ATOM      1  C   UNL     1      16.767  -8.952  13.566  0.00  0.00    +0.020 A 
ATOM      2  C   UNL     1      16.354  -7.708  14.174  0.00  0.00    +0.013 A 
ATOM      3  C   UNL     1      17.031  -6.459  13.847  0.00  0.00    +0.019 A 
ATOM     38  C   UNL     1      18.128  -6.504  12.892  0.00  0.00    +0.120 A 
ATOM     39  N   UNL     1      18.504  -7.717  12.324  0.00  0.00    -0.263 NA
ATOM     40  C   UNL     1      17.862  -8.926  12.633  0.00  0.00    +0.111 A 
ENDBRANCH   4   3
ENDBRANCH  10   9
BRANCH  12  13
ATOM     13  N   UNL     1      18.575   1.674  17.590  0.00  0.00    -0.281 N 
ATOM     14  C   UNL     1      19.867   2.154  17.729  0.00  0.00    +0.248 C 
ATOM     30  O   UNL     1      20.700   1.686  18.491  0.00  0.00    -0.270 OA
ATOM     31  H   UNL     1      17.929   2.269  17.071  0.00  0.00    +0.155 HD
BRANCH  14  15
ATOM     15  C   UNL     1      20.291   3.333  16.913  0.00  0.00    +0.037 A 
ATOM     16  C   UNL     1      20.074   4.702  17.387  0.00  0.00    +0.013 A 
ATOM     17  C   UNL     1      20.477   5.821  16.573  0.00  0.00    +0.005 A 
ATOM     18  C   UNL     1      21.103   5.575  15.276  0.00  0.00    -0.033 A 
ATOM     28  C   UNL     1      21.311   4.207  14.833  0.00  0.00    +0.005 A 
ATOM     29  C   UNL     1      20.916   3.107  15.628  0.00  0.00    +0.013 A 
BRANCH  18  19
ATOM     19  C   UNL     1      21.545   6.709  14.332  0.00  0.00    +0.119 C 
BRANCH  19  20
ATOM     20  N   UNL     1      21.818   6.347  12.910  0.00  0.00    -0.302 NA
ATOM     21  C   UNL     1      22.510   7.483  12.150  0.00  0.00    +0.066 C 
ATOM     22  C   UNL     1      22.808   7.079  10.670  0.00  0.00    -0.064 C 
ATOM     23  N   UNL     1      21.502   6.683   9.979  0.00  0.00    +0.379 N 
ATOM     24  C   UNL     1      21.771   6.358   8.571  0.00  0.00    -0.096 C 
ATOM     25  H   UNL     1      20.827   7.569   9.999  0.00  0.00    -0.082 HD
ATOM     26  C   UNL     1      20.806   5.556  10.729  0.00  0.00    -0.064 C 
ATOM     27  C   UNL     1      20.541   5.957  12.207  0.00  0.00    +0.066 C 
ENDBRANCH  19  20
ENDBRANCH  18  19
ENDBRANCH  14  15
ENDBRANCH  12  13
TORSDOF 6
ENDMDL
MODEL 5
REMARK VINA RESULT:      -7.8      5.263      9.310
REMARK  Name = C:\Users\Docking\Desktop\test protocol\1iep_ligandH.pdb
REMARK  8 active torsions:
REMARK  status: ('A' for Active; 'I' for Inactive)
REMARK    1  A    between atoms: _5  and  _11
REMARK    2  A    between atoms: _19  and  _21
REMARK    3  A    between atoms: _22  and  _66
REMARK    4  A    between atoms: _27  and  _30
REMARK    5  A    between atoms: _32  and  _33
REMARK    6  A    between atoms: _38  and  _43
REMARK    7  A    between atoms: _43  and  _46
REMARK    8  A    between atoms: _53  and  _55
REMARK                            x       y       z     vdW  Elec       q    Type
REMARK                         _______ _______ _______ _____ _____    ______ ____
ROOT
ATOM     10  C   UNL     1      18.549  -1.202  16.835  0.00  0.00    +0.038 A 
ATOM     11  C   UNL     1      18.974  -0.074  16.087  0.00  0.00    +0.047 A 
ATOM     12  C   UNL     1      18.886   1.270  16.637  0.00  0.00    +0.035 A 
ATOM     32  C   UNL     1      18.361   1.429  17.953  0.00  0.00    +0.024 A 
ATOM     33  C   UNL     1      17.923   0.293  18.726  0.00  0.00    +0.007 A 
ATOM     34  C   UNL     1      18.006  -1.035  18.188  0.00  0.00    -0.029 A 
ATOM     35  C   UNL     1      17.515  -2.214  19.060  0.00  0.00    +0.045 C 
ENDROOT
BRANCH  10   9
ATOM      4  C   UNL     1      16.774  -4.849  14.269  0.00  0.00    +0.077 A 
ATOM      5  C   UNL     1      15.516  -4.184  14.084  0.00  0.00    +0.048 A 
ATOM      6  C   UNL     1      15.364  -2.909  14.672  0.00  0.00    +0.116 A 
ATOM      7  N   UNL     1      16.399  -2.348  15.388  0.00  0.00    -0.223 NA
ATOM      8  C   UNL     1      17.599  -3.017  15.548  0.00  0.00    +0.220 A 
ATOM      9  N   UNL     1      18.657  -2.469  16.258  0.00  0.00    -0.283 N 
ATOM     36  H   UNL     1      19.523  -2.997  16.360  0.00  0.00    +0.155 HD
ATOM     37  N   UNL     1      17.769  -4.237  14.998  0.00  0.00    -0.214 NA
BRANCH   4   3
ATOM      1  C   UNL     1      16.685  -8.681  13.489  0.00  0.00    +0.020 A 
ATOM      2  C   UNL     1      16.341  -7.400  14.061  0.00  0.00    +0.013 A 
ATOM      3  C   UNL     1      17.089  -6.200  13.706  0.00  0.00    +0.019 A 
ATOM     38  C   UNL     1      18.188  -6.332  12.762  0.00  0.00    +0.120 A 
ATOM     39  N   UNL     1      18.498  -7.579  12.228  0.00  0.00    -0.263 NA
ATOM     40  C   UNL     1      17.786  -8.741  12.563  0.00  0.00    +0.111 A 
ENDBRANCH   4   3
ENDBRANCH  10   9
BRANCH  12  13
ATOM     13  N   UNL     1      19.294   2.454  15.922  0.00  0.00    -0.281 N 
ATOM     14  C   UNL     1      20.552   3.034  15.885  0.00  0.00    +0.248 C 
ATOM     30  O   UNL     1      21.470   2.743  16.636  0.00  0.00    -0.270 OA
ATOM     31  H   UNL     1      18.569   2.920  15.378  0.00  0.00    +0.155 HD
BRANCH  14  15
ATOM     15  C   UNL     1      20.823   4.104  14.877  0.00  0.00    +0.037 A 
ATOM     16  C   UNL     1      20.070   4.174  13.622  0.00  0.00    +0.013 A 
ATOM     17  C   UNL     1      20.364   5.206  12.659  0.00  0.00    +0.005 A 
ATOM     18  C   UNL     1      21.417   6.177  12.948  0.00  0.00    -0.033 A 
ATOM     28  C   UNL     1      22.144   6.087  14.203  0.00  0.00    +0.005 A 
ATOM     29  C   UNL     1      21.860   5.077  15.149  0.00  0.00    +0.013 A 
BRANCH  18  19
ATOM     19  C   UNL     1      21.812   7.299  11.970  0.00  0.00    +0.119 C 
BRANCH  19  20
ATOM     20  N   UNL     1      22.658   6.918  10.799  0.00  0.00    -0.302 NA
ATOM     21  C   UNL     1      21.822   6.363   9.643  0.00  0.00    +0.066 C 
ATOM     22  C   UNL     1      22.720   5.991   8.418  0.00  0.00    -0.064 C 
ATOM     23  N   UNL     1      23.780   4.978   8.856  0.00  0.00    +0.379 N 
ATOM     24  C   UNL     1      24.589   4.582   7.694  0.00  0.00    -0.096 C 
ATOM     25  H   UNL     1      23.248   4.070   9.223  0.00  0.00    -0.082 HD
ATOM     26  C   UNL     1      24.614   5.521  10.007  0.00  0.00    -0.064 C 
ATOM     27  C   UNL     1      23.708   5.915  11.208  0.00  0.00    +0.066 C 
ENDBRANCH  19  20
ENDBRANCH  18  19
ENDBRANCH  14  15
ENDBRANCH  12  13
TORSDOF 6
ENDMDL
