MODEL 1
REMARK VINA RESULT:      -8.3      0.000      0.000
REMARK  Name = C:\Users\Docking\Desktop\test protocol\1iep_ligandH.pdb
REMARK  8 active torsions:
REMARK  status: ('A' for Active; 'I' for Inactive)
REMARK    1  A    between atoms: _5  and  _11
REMARK    2  A    between atoms: _19  and  _21
REMARK    3  A    between atoms: _22  and  _66
REMARK    4  A    between atoms: _27  and  _30
REMARK    5  A    between atoms: _32  and  _33
REMARK    6  A    between atoms: _38  and  _43
REMARK    7  A    between atoms: _43  and  _46
REMARK    8  A    between atoms: _53  and  _55
REMARK                            x       y       z     vdW  Elec       q    Type
REMARK                         _______ _______ _______ _____ _____    ______ ____
ROOT
ATOM     10  C   UNL     1      68.274  53.744  15.591  0.00  0.00    +0.038 A 
ATOM     11  C   UNL     1      68.229  52.345  15.363  0.00  0.00    +0.047 A 
ATOM     12  C   UNL     1      67.688  51.801  14.127  0.00  0.00    +0.035 A 
ATOM     32  C   UNL     1      67.203  52.711  13.143  0.00  0.00    +0.024 A 
ATOM     33  C   UNL     1      67.240  54.136  13.359  0.00  0.00    +0.007 A 
ATOM     34  C   UNL     1      67.770  54.679  14.577  0.00  0.00    -0.029 A 
ATOM     35  C   UNL     1      67.778  56.215  14.757  0.00  0.00    +0.045 C 
ENDROOT
BRANCH  10   9
ATOM      4  C   UNL     1      67.787  55.457  20.048  0.00  0.00    +0.077 A 
ATOM      5  C   UNL     1      66.355  55.443  19.960  0.00  0.00    +0.048 A 
ATOM      6  C   UNL     1      65.783  54.996  18.748  0.00  0.00    +0.116 A 
ATOM      7  N   UNL     1      66.593  54.593  17.708  0.00  0.00    -0.223 NA
ATOM      8  C   UNL     1      67.970  54.620  17.825  0.00  0.00    +0.220 A 
ATOM      9  N   UNL     1      68.804  54.212  16.795  0.00  0.00    -0.283 N 
ATOM     36  H   UNL     1      69.815  54.254  16.918  0.00  0.00    +0.155 HD
ATOM     37  N   UNL     1      68.541  55.045  18.972  0.00  0.00    -0.214 NA
BRANCH   4   3
ATOM      1  C   UNL     1      68.814  56.136  23.761  0.00  0.00    +0.020 A 
ATOM      2  C   UNL     1      68.048  55.689  22.620  0.00  0.00    +0.013 A 
ATOM      3  C   UNL     1      68.539  55.900  21.264  0.00  0.00    +0.019 A 
ATOM     38  C   UNL     1      69.819  56.571  21.095  0.00  0.00    +0.120 A 
ATOM     39  N   UNL     1      70.534  56.992  22.212  0.00  0.00    -0.263 NA
ATOM     40  C   UNL     1      70.071  56.796  23.522  0.00  0.00    +0.111 A 
ENDBRANCH   4   3
ENDBRANCH  10   9
BRANCH  12  13
ATOM     13  N   UNL     1      67.610  50.389  13.843  0.00  0.00    -0.281 N 
ATOM     14  C   UNL     1      68.383  49.654  12.960  0.00  0.00    +0.248 C 
ATOM     30  O   UNL     1      69.123  50.141  12.118  0.00  0.00    -0.270 OA
ATOM     31  H   UNL     1      66.897  49.869  14.356  0.00  0.00    +0.155 HD
BRANCH  14  15
ATOM     15  C   UNL     1      68.315  48.162  13.010  0.00  0.00    +0.037 A 
ATOM     16  C   UNL     1      68.369  47.441  14.284  0.00  0.00    +0.013 A 
ATOM     17  C   UNL     1      68.318  46.000  14.303  0.00  0.00    +0.005 A 
ATOM     18  C   UNL     1      68.210  45.271  13.041  0.00  0.00    -0.033 A 
ATOM     28  C   UNL     1      68.153  46.012  11.792  0.00  0.00    +0.005 A 
ATOM     29  C   UNL     1      68.204  47.424  11.770  0.00  0.00    +0.013 A 
BRANCH  18  19
ATOM     19  C   UNL     1      68.171  43.733  12.965  0.00  0.00    +0.119 C 
BRANCH  19  20
ATOM     20  N   UNL     1      67.030  43.044  13.638  0.00  0.00    -0.302 NA
ATOM     21  C   UNL     1      65.722  43.828  13.497  0.00  0.00    +0.066 C 
ATOM     22  C   UNL     1      64.534  43.082  14.187  0.00  0.00    -0.064 C 
ATOM     23  N   UNL     1      64.869  42.848  15.661  0.00  0.00    +0.379 N 
ATOM     24  C   UNL     1      63.731  42.199  16.326  0.00  0.00    -0.096 C 
ATOM     25  H   UNL     1      65.015  43.846  16.136  0.00  0.00    -0.082 HD
ATOM     26  C   UNL     1      66.170  42.072  15.810  0.00  0.00    -0.064 C 
ATOM     27  C   UNL     1      67.338  42.808  15.096  0.00  0.00    +0.066 C 
ENDBRANCH  19  20
ENDBRANCH  18  19
ENDBRANCH  14  15
ENDBRANCH  12  13
TORSDOF 6
ENDMDL
MODEL 2
REMARK VINA RESULT:      -8.3     22.383     24.252
REMARK  Name = C:\Users\Docking\Desktop\test protocol\1iep_ligandH.pdb
REMARK  8 active torsions:
REMARK  status: ('A' for Active; 'I' for Inactive)
REMARK    1  A    between atoms: _5  and  _11
REMARK    2  A    between atoms: _19  and  _21
REMARK    3  A    between atoms: _22  and  _66
REMARK    4  A    between atoms: _27  and  _30
REMARK    5  A    between atoms: _32  and  _33
REMARK    6  A    between atoms: _38  and  _43
REMARK    7  A    between atoms: _43  and  _46
REMARK    8  A    between atoms: _53  and  _55
REMARK                            x       y       z     vdW  Elec       q    Type
REMARK                         _______ _______ _______ _____ _____    ______ ____
ROOT
ATOM     10  C   UNL     1      76.432  71.395   5.410  0.00  0.00    +0.038 A 
ATOM     11  C   UNL     1      75.071  71.031   5.247  0.00  0.00    +0.047 A 
ATOM     12  C   UNL     1      74.327  71.415   4.058  0.00  0.00    +0.035 A 
ATOM     32  C   UNL     1      75.001  72.168   3.053  0.00  0.00    +0.024 A 
ATOM     33  C   UNL     1      76.384  72.547   3.203  0.00  0.00    +0.007 A 
ATOM     34  C   UNL     1      77.122  72.173   4.375  0.00  0.00    -0.029 A 
ATOM     35  C   UNL     1      78.601  72.613   4.485  0.00  0.00    +0.045 C 
ENDROOT
BRANCH  10   9
ATOM      4  C   UNL     1      78.067  72.231   9.845  0.00  0.00    +0.077 A 
ATOM      5  C   UNL     1      77.575  73.578   9.836  0.00  0.00    +0.048 A 
ATOM      6  C   UNL     1      76.913  74.020   8.669  0.00  0.00    +0.116 A 
ATOM      7  N   UNL     1      76.760  73.168   7.596  0.00  0.00    -0.223 NA
ATOM      8  C   UNL     1      77.248  71.875   7.636  0.00  0.00    +0.220 A 
ATOM      9  N   UNL     1      77.099  70.999   6.572  0.00  0.00    -0.283 N 
ATOM     36  H   UNL     1      77.480  70.056   6.639  0.00  0.00    +0.155 HD
ATOM     37  N   UNL     1      77.885  71.430   8.739  0.00  0.00    -0.214 NA
BRANCH   4   3
ATOM      1  C   UNL     1      79.626  71.648  13.385  0.00  0.00    +0.020 A 
ATOM      2  C   UNL     1      78.923  72.285  12.295  0.00  0.00    +0.013 A 
ATOM      3  C   UNL     1      78.785  71.617  11.007  0.00  0.00    +0.019 A 
ATOM     38  C   UNL     1      79.373  70.295  10.854  0.00  0.00    +0.120 A 
ATOM     39  N   UNL     1      80.045  69.707  11.921  0.00  0.00    -0.263 NA
ATOM     40  C   UNL     1      80.186  70.341  13.164  0.00  0.00    +0.111 A 
ENDBRANCH   4   3
ENDBRANCH  10   9
BRANCH  12  13
ATOM     13  N   UNL     1      72.941  71.081   3.841  0.00  0.00    -0.281 N 
ATOM     14  C   UNL     1      72.421  69.927   3.278  0.00  0.00    +0.248 C 
ATOM     30  O   UNL     1      73.082  69.093   2.677  0.00  0.00    -0.270 OA
ATOM     31  H   UNL     1      72.260  71.780   4.139  0.00  0.00    +0.155 HD
BRANCH  14  15
ATOM     15  C   UNL     1      70.953  69.669   3.386  0.00  0.00    +0.037 A 
ATOM     16  C   UNL     1      70.408  68.805   4.436  0.00  0.00    +0.013 A 
ATOM     17  C   UNL     1      68.989  68.559   4.507  0.00  0.00    +0.005 A 
ATOM     18  C   UNL     1      68.105  69.180   3.524  0.00  0.00    -0.033 A 
ATOM     28  C   UNL     1      68.672  70.037   2.495  0.00  0.00    +0.005 A 
ATOM     29  C   UNL     1      70.062  70.279   2.422  0.00  0.00    +0.013 A 
BRANCH  18  19
ATOM     19  C   UNL     1      66.581  68.957   3.510  0.00  0.00    +0.119 C 
BRANCH  19  20
ATOM     20  N   UNL     1      65.872  69.155   2.211  0.00  0.00    -0.302 NA
ATOM     21  C   UNL     1      64.354  69.027   2.360  0.00  0.00    +0.066 C 
ATOM     22  C   UNL     1      63.626  69.261   0.995  0.00  0.00    -0.064 C 
ATOM     23  N   UNL     1      64.155  68.265  -0.038  0.00  0.00    +0.379 N 
ATOM     24  C   UNL     1      63.433  68.443  -1.306  0.00  0.00    -0.096 C 
ATOM     25  H   UNL     1      63.933  67.239   0.337  0.00  0.00    -0.082 HD
ATOM     26  C   UNL     1      65.665  68.383  -0.190  0.00  0.00    -0.064 C 
ATOM     27  C   UNL     1      66.376  68.179   1.177  0.00  0.00    +0.066 C 
ENDBRANCH  19  20
ENDBRANCH  18  19
ENDBRANCH  14  15
ENDBRANCH  12  13
TORSDOF 6
ENDMDL
MODEL 3
REMARK VINA RESULT:      -7.9      6.762     14.553
REMARK  Name = C:\Users\Docking\Desktop\test protocol\1iep_ligandH.pdb
REMARK  8 active torsions:
REMARK  status: ('A' for Active; 'I' for Inactive)
REMARK    1  A    between atoms: _5  and  _11
REMARK    2  A    between atoms: _19  and  _21
REMARK    3  A    between atoms: _22  and  _66
REMARK    4  A    between atoms: _27  and  _30
REMARK    5  A    between atoms: _32  and  _33
REMARK    6  A    between atoms: _38  and  _43
REMARK    7  A    between atoms: _43  and  _46
REMARK    8  A    between atoms: _53  and  _55
REMARK                            x       y       z     vdW  Elec       q    Type
REMARK                         _______ _______ _______ _____ _____    ______ ____
ROOT
ATOM     10  C   UNL     1      67.730  54.218  22.520  0.00  0.00    +0.038 A 
ATOM     11  C   UNL     1      66.671  54.834  23.235  0.00  0.00    +0.047 A 
ATOM     12  C   UNL     1      66.837  55.243  24.621  0.00  0.00    +0.035 A 
ATOM     32  C   UNL     1      68.097  55.010  25.248  0.00  0.00    +0.024 A 
ATOM     33  C   UNL     1      69.183  54.384  24.536  0.00  0.00    +0.007 A 
ATOM     34  C   UNL     1      69.024  53.977  23.169  0.00  0.00    -0.029 A 
ATOM     35  C   UNL     1      70.221  53.304  22.458  0.00  0.00    +0.045 C 
ENDROOT
BRANCH  10   9
ATOM      4  C   UNL     1      67.971  55.053  17.800  0.00  0.00    +0.077 A 
ATOM      5  C   UNL     1      68.548  56.351  17.999  0.00  0.00    +0.048 A 
ATOM      6  C   UNL     1      68.760  56.769  19.332  0.00  0.00    +0.116 A 
ATOM      7  N   UNL     1      68.417  55.942  20.379  0.00  0.00    -0.223 NA
ATOM      8  C   UNL     1      67.861  54.697  20.152  0.00  0.00    +0.220 A 
ATOM      9  N   UNL     1      67.515  53.846  21.191  0.00  0.00    -0.283 N 
ATOM     36  H   UNL     1      67.100  52.938  20.982  0.00  0.00    +0.155 HD
ATOM     37  N   UNL     1      67.647  54.275  18.889  0.00  0.00    -0.214 NA
BRANCH   4   3
ATOM      1  C   UNL     1      67.095  54.669  14.007  0.00  0.00    +0.020 A 
ATOM      2  C   UNL     1      67.358  55.283  15.288  0.00  0.00    +0.013 A 
ATOM      3  C   UNL     1      67.688  54.468  16.450  0.00  0.00    +0.019 A 
ATOM     38  C   UNL     1      67.745  53.024  16.282  0.00  0.00    +0.120 A 
ATOM     39  N   UNL     1      67.485  52.461  15.037  0.00  0.00    -0.263 NA
ATOM     40  C   UNL     1      67.165  53.234  13.911  0.00  0.00    +0.111 A 
ENDBRANCH   4   3
ENDBRANCH  10   9
BRANCH  12  13
ATOM     13  N   UNL     1      65.796  55.866  25.400  0.00  0.00    -0.281 N 
ATOM     14  C   UNL     1      65.823  57.103  26.024  0.00  0.00    +0.248 C 
ATOM     30  O   UNL     1      66.832  57.773  26.185  0.00  0.00    -0.270 OA
ATOM     31  H   UNL     1      64.935  55.330  25.505  0.00  0.00    +0.155 HD
BRANCH  14  15
ATOM     15  C   UNL     1      64.548  57.670  26.558  0.00  0.00    +0.037 A 
ATOM     16  C   UNL     1      63.434  56.802  26.946  0.00  0.00    +0.013 A 
ATOM     17  C   UNL     1      62.208  57.376  27.442  0.00  0.00    +0.005 A 
ATOM     18  C   UNL     1      62.091  58.828  27.555  0.00  0.00    -0.033 A 
ATOM     28  C   UNL     1      63.214  59.665  27.167  0.00  0.00    +0.005 A 
ATOM     29  C   UNL     1      64.417  59.106  26.679  0.00  0.00    +0.013 A 
BRANCH  18  19
ATOM     19  C   UNL     1      60.814  59.528  28.054  0.00  0.00    +0.119 C 
BRANCH  19  20
ATOM     20  N   UNL     1      59.604  59.447  27.182  0.00  0.00    -0.302 NA
ATOM     21  C   UNL     1      59.959  59.561  25.696  0.00  0.00    +0.066 C 
ATOM     22  C   UNL     1      58.685  59.452  24.797  0.00  0.00    -0.064 C 
ATOM     23  N   UNL     1      57.685  60.538  25.200  0.00  0.00    +0.379 N 
ATOM     24  C   UNL     1      56.511  60.475  24.318  0.00  0.00    -0.096 C 
ATOM     25  H   UNL     1      58.177  61.525  25.039  0.00  0.00    -0.082 HD
ATOM     26  C   UNL     1      57.329  60.434  26.676  0.00  0.00    -0.064 C 
ATOM     27  C   UNL     1      58.606  60.514  27.559  0.00  0.00    +0.066 C 
ENDBRANCH  19  20
ENDBRANCH  18  19
ENDBRANCH  14  15
ENDBRANCH  12  13
TORSDOF 6
ENDMDL
MODEL 4
REMARK VINA RESULT:      -7.9      6.859     14.615
REMARK  Name = C:\Users\Docking\Desktop\test protocol\1iep_ligandH.pdb
REMARK  8 active torsions:
REMARK  status: ('A' for Active; 'I' for Inactive)
REMARK    1  A    between atoms: _5  and  _11
REMARK    2  A    between atoms: _19  and  _21
REMARK    3  A    between atoms: _22  and  _66
REMARK    4  A    between atoms: _27  and  _30
REMARK    5  A    between atoms: _32  and  _33
REMARK    6  A    between atoms: _38  and  _43
REMARK    7  A    between atoms: _43  and  _46
REMARK    8  A    between atoms: _53  and  _55
REMARK                            x       y       z     vdW  Elec       q    Type
REMARK                         _______ _______ _______ _____ _____    ______ ____
ROOT
ATOM     10  C   UNL     1      69.249  56.338  18.121  0.00  0.00    +0.038 A 
ATOM     11  C   UNL     1      69.698  57.577  17.595  0.00  0.00    +0.047 A 
ATOM     12  C   UNL     1      69.483  58.822  18.315  0.00  0.00    +0.035 A 
ATOM     32  C   UNL     1      68.810  58.770  19.570  0.00  0.00    +0.024 A 
ATOM     33  C   UNL     1      68.347  57.520  20.120  0.00  0.00    +0.007 A 
ATOM     34  C   UNL     1      68.553  56.288  19.413  0.00  0.00    -0.029 A 
ATOM     35  C   UNL     1      68.029  54.979  20.047  0.00  0.00    +0.045 C 
ENDROOT
BRANCH  10   9
ATOM      4  C   UNL     1      68.328  53.398  14.441  0.00  0.00    +0.077 A 
ATOM      5  C   UNL     1      67.275  54.242  13.954  0.00  0.00    +0.048 A 
ATOM      6  C   UNL     1      66.998  55.420  14.683  0.00  0.00    +0.116 A 
ATOM      7  N   UNL     1      67.725  55.722  15.814  0.00  0.00    -0.223 NA
ATOM      8  C   UNL     1      68.732  54.885  16.258  0.00  0.00    +0.220 A 
ATOM      9  N   UNL     1      69.482  55.173  17.388  0.00  0.00    -0.283 N 
ATOM     36  H   UNL     1      70.212  54.526  17.687  0.00  0.00    +0.155 HD
ATOM     37  N   UNL     1      69.016  53.754  15.580  0.00  0.00    -0.214 NA
BRANCH   4   3
ATOM      1  C   UNL     1      68.537  49.638  13.385  0.00  0.00    +0.020 A 
ATOM      2  C   UNL     1      68.099  50.842  14.053  0.00  0.00    +0.013 A 
ATOM      3  C   UNL     1      68.741  52.121  13.779  0.00  0.00    +0.019 A 
ATOM     38  C   UNL     1      69.831  52.148  12.815  0.00  0.00    +0.120 A 
ATOM     39  N   UNL     1      70.232  50.972  12.189  0.00  0.00    -0.263 NA
ATOM     40  C   UNL     1      69.623  49.735  12.446  0.00  0.00    +0.111 A 
ENDBRANCH   4   3
ENDBRANCH  10   9
BRANCH  12  13
ATOM     13  N   UNL     1      69.909  60.110  17.826  0.00  0.00    -0.281 N 
ATOM     14  C   UNL     1      71.102  60.766  18.082  0.00  0.00    +0.248 C 
ATOM     30  O   UNL     1      71.900  60.437  18.947  0.00  0.00    -0.270 OA
ATOM     31  H   UNL     1      69.251  60.598  17.218  0.00  0.00    +0.155 HD
BRANCH  14  15
ATOM     15  C   UNL     1      71.453  61.970  17.269  0.00  0.00    +0.037 A 
ATOM     16  C   UNL     1      71.447  63.312  17.857  0.00  0.00    +0.013 A 
ATOM     17  C   UNL     1      71.773  64.459  17.046  0.00  0.00    +0.005 A 
ATOM     18  C   UNL     1      72.109  64.267  15.637  0.00  0.00    -0.033 A 
ATOM     28  C   UNL     1      72.112  62.924  15.081  0.00  0.00    +0.005 A 
ATOM     29  C   UNL     1      71.792  61.799  15.873  0.00  0.00    +0.013 A 
BRANCH  18  19
ATOM     19  C   UNL     1      72.449  65.435  14.692  0.00  0.00    +0.119 C 
BRANCH  19  20
ATOM     20  N   UNL     1      72.868  65.089  13.302  0.00  0.00    -0.302 NA
ATOM     21  C   UNL     1      73.693  66.206  12.656  0.00  0.00    +0.066 C 
ATOM     22  C   UNL     1      74.143  65.818  11.209  0.00  0.00    -0.064 C 
ATOM     23  N   UNL     1      72.909  65.498  10.364  0.00  0.00    +0.379 N 
ATOM     24  C   UNL     1      73.324  65.190   8.988  0.00  0.00    -0.096 C 
ATOM     25  H   UNL     1      72.276  66.416  10.329  0.00  0.00    -0.082 HD
ATOM     26  C   UNL     1      72.081  64.391  11.000  0.00  0.00    -0.064 C 
ATOM     27  C   UNL     1      71.665  64.774  12.448  0.00  0.00    +0.066 C 
ENDBRANCH  19  20
ENDBRANCH  18  19
ENDBRANCH  14  15
ENDBRANCH  12  13
TORSDOF 6
ENDMDL
MODEL 5
REMARK VINA RESULT:      -7.8      7.604     15.360
REMARK  Name = C:\Users\Docking\Desktop\test protocol\1iep_ligandH.pdb
REMARK  8 active torsions:
REMARK  status: ('A' for Active; 'I' for Inactive)
REMARK    1  A    between atoms: _5  and  _11
REMARK    2  A    between atoms: _19  and  _21
REMARK    3  A    between atoms: _22  and  _66
REMARK    4  A    between atoms: _27  and  _30
REMARK    5  A    between atoms: _32  and  _33
REMARK    6  A    between atoms: _38  and  _43
REMARK    7  A    between atoms: _43  and  _46
REMARK    8  A    between atoms: _53  and  _55
REMARK                            x       y       z     vdW  Elec       q    Type
REMARK                         _______ _______ _______ _____ _____    ______ ____
ROOT
ATOM     10  C   UNL     1      69.467  56.588  17.842  0.00  0.00    +0.038 A 
ATOM     11  C   UNL     1      69.945  57.806  17.293  0.00  0.00    +0.047 A 
ATOM     12  C   UNL     1      69.747  59.071  17.984  0.00  0.00    +0.035 A 
ATOM     32  C   UNL     1      69.061  59.059  19.233  0.00  0.00    +0.024 A 
ATOM     33  C   UNL     1      68.568  57.830  19.805  0.00  0.00    +0.007 A 
ATOM     34  C   UNL     1      68.758  56.580  19.127  0.00  0.00    -0.029 A 
ATOM     35  C   UNL     1      68.203  55.294  19.784  0.00  0.00    +0.045 C 
ENDROOT
BRANCH  10   9
ATOM      4  C   UNL     1      68.361  53.467  14.368  0.00  0.00    +0.077 A 
ATOM      5  C   UNL     1      67.239  54.251  13.939  0.00  0.00    +0.048 A 
ATOM      6  C   UNL     1      66.976  55.448  14.643  0.00  0.00    +0.116 A 
ATOM      7  N   UNL     1      67.783  55.822  15.696  0.00  0.00    -0.223 NA
ATOM      8  C   UNL     1      68.856  55.042  16.085  0.00  0.00    +0.220 A 
ATOM      9  N   UNL     1      69.685  55.403  17.136  0.00  0.00    -0.283 N 
ATOM     36  H   UNL     1      70.462  54.796  17.397  0.00  0.00    +0.155 HD
ATOM     37  N   UNL     1      69.127  53.894  15.429  0.00  0.00    -0.214 NA
BRANCH   4   3
ATOM      1  C   UNL     1      68.532  49.698  13.335  0.00  0.00    +0.020 A 
ATOM      2  C   UNL     1      68.099  50.913  13.986  0.00  0.00    +0.013 A 
ATOM      3  C   UNL     1      68.769  52.180  13.721  0.00  0.00    +0.019 A 
ATOM     38  C   UNL     1      69.882  52.183  12.784  0.00  0.00    +0.120 A 
ATOM     39  N   UNL     1      70.278  50.997  12.173  0.00  0.00    -0.263 NA
ATOM     40  C   UNL     1      69.641  49.772  12.422  0.00  0.00    +0.111 A 
ENDBRANCH   4   3
ENDBRANCH  10   9
BRANCH  12  13
ATOM     13  N   UNL     1      70.203  60.340  17.472  0.00  0.00    -0.281 N 
ATOM     14  C   UNL     1      71.495  60.707  17.134  0.00  0.00    +0.248 C 
ATOM     30  O   UNL     1      72.494  60.066  17.424  0.00  0.00    -0.270 OA
ATOM     31  H   UNL     1      69.485  61.053  17.343  0.00  0.00    +0.155 HD
BRANCH  14  15
ATOM     15  C   UNL     1      71.709  61.978  16.377  0.00  0.00    +0.037 A 
ATOM     16  C   UNL     1      71.816  63.266  17.068  0.00  0.00    +0.013 A 
ATOM     17  C   UNL     1      72.006  64.479  16.313  0.00  0.00    +0.005 A 
ATOM     18  C   UNL     1      72.091  64.409  14.856  0.00  0.00    -0.033 A 
ATOM     28  C   UNL     1      71.987  63.118  14.196  0.00  0.00    +0.005 A 
ATOM     29  C   UNL     1      71.800  61.927  14.933  0.00  0.00    +0.013 A 
BRANCH  18  19
ATOM     19  C   UNL     1      72.272  65.655  13.969  0.00  0.00    +0.119 C 
BRANCH  19  20
ATOM     20  N   UNL     1      73.670  66.088  13.675  0.00  0.00    -0.302 NA
ATOM     21  C   UNL     1      74.176  67.122  14.686  0.00  0.00    +0.066 C 
ATOM     22  C   UNL     1      75.648  67.547  14.377  0.00  0.00    -0.064 C 
ATOM     23  N   UNL     1      75.729  68.099  12.952  0.00  0.00    +0.379 N 
ATOM     24  C   UNL     1      77.100  68.553  12.679  0.00  0.00    -0.096 C 
ATOM     25  H   UNL     1      75.059  68.988  12.896  0.00  0.00    -0.082 HD
ATOM     26  C   UNL     1      75.225  67.078  11.941  0.00  0.00    -0.064 C 
ATOM     27  C   UNL     1      73.772  66.640  12.274  0.00  0.00    +0.066 C 
ENDBRANCH  19  20
ENDBRANCH  18  19
ENDBRANCH  14  15
ENDBRANCH  12  13
TORSDOF 6
ENDMDL
