MODEL 1
REMARK VINA RESULT:      -9.2      0.000      0.000
REMARK  Name = C:\Users\Docking\Desktop\test protocol\1iep_ligandH.pdb
REMARK  8 active torsions:
REMARK  status: ('A' for Active; 'I' for Inactive)
REMARK    1  A    between atoms: _5  and  _11
REMARK    2  A    between atoms: _19  and  _21
REMARK    3  A    between atoms: _22  and  _66
REMARK    4  A    between atoms: _27  and  _30
REMARK    5  A    between atoms: _32  and  _33
REMARK    6  A    between atoms: _38  and  _43
REMARK    7  A    between atoms: _43  and  _46
REMARK    8  A    between atoms: _53  and  _55
REMARK                            x       y       z     vdW  Elec       q    Type
REMARK                         _______ _______ _______ _____ _____    ______ ____
ROOT
ATOM     10  C   UNL     1      68.854  54.012  23.424  0.00  0.00    +0.038 A 
ATOM     11  C   UNL     1      68.727  53.855  22.020  0.00  0.00    +0.047 A 
ATOM     12  C   UNL     1      67.472  54.140  21.341  0.00  0.00    +0.035 A 
ATOM     32  C   UNL     1      66.367  54.587  22.123  0.00  0.00    +0.024 A 
ATOM     33  C   UNL     1      66.478  54.751  23.551  0.00  0.00    +0.007 A 
ATOM     34  C   UNL     1      67.713  54.469  24.227  0.00  0.00    -0.029 A 
ATOM     35  C   UNL     1      67.772  54.657  25.761  0.00  0.00    +0.045 C 
ENDROOT
BRANCH  10   9
ATOM      4  C   UNL     1      73.107  55.339  25.208  0.00  0.00    +0.077 A 
ATOM      5  C   UNL     1      72.875  56.719  24.894  0.00  0.00    +0.048 A 
ATOM      6  C   UNL     1      71.652  57.045  24.267  0.00  0.00    +0.116 A 
ATOM      7  N   UNL     1      70.736  56.056  23.981  0.00  0.00    -0.223 NA
ATOM      8  C   UNL     1      70.992  54.734  24.296  0.00  0.00    +0.220 A 
ATOM      9  N   UNL     1      70.081  53.724  24.024  0.00  0.00    -0.283 N 
ATOM     36  H   UNL     1      70.311  52.760  24.265  0.00  0.00    +0.155 HD
ATOM     37  N   UNL     1      72.153  54.397  24.893  0.00  0.00    -0.214 NA
BRANCH   4   3
ATOM      1  C   UNL     1      76.815  54.295  25.892  0.00  0.00    +0.020 A 
ATOM      2  C   UNL     1      75.644  54.788  25.204  0.00  0.00    +0.013 A 
ATOM      3  C   UNL     1      74.351  54.837  25.874  0.00  0.00    +0.019 A 
ATOM     38  C   UNL     1      74.276  54.377  27.253  0.00  0.00    +0.120 A 
ATOM     39  N   UNL     1      75.420  53.906  27.890  0.00  0.00    -0.263 NA
ATOM     40  C   UNL     1      76.669  53.853  27.254  0.00  0.00    +0.111 A 
ENDBRANCH   4   3
ENDBRANCH  10   9
BRANCH  12  13
ATOM     13  N   UNL     1      67.282  53.991  19.920  0.00  0.00    -0.281 N 
ATOM     14  C   UNL     1      67.822  54.761  18.903  0.00  0.00    +0.248 C 
ATOM     30  O   UNL     1      68.383  55.833  19.071  0.00  0.00    -0.270 OA
ATOM     31  H   UNL     1      66.675  53.224  19.628  0.00  0.00    +0.155 HD
BRANCH  14  15
ATOM     15  C   UNL     1      67.709  54.277  17.493  0.00  0.00    +0.037 A 
ATOM     16  C   UNL     1      67.852  52.857  17.163  0.00  0.00    +0.013 A 
ATOM     17  C   UNL     1      67.755  52.420  15.793  0.00  0.00    +0.005 A 
ATOM     18  C   UNL     1      67.512  53.405  14.742  0.00  0.00    -0.033 A 
ATOM     28  C   UNL     1      67.369  54.807  15.098  0.00  0.00    +0.005 A 
ATOM     29  C   UNL     1      67.464  55.240  16.440  0.00  0.00    +0.013 A 
BRANCH  18  19
ATOM     19  C   UNL     1      67.416  53.031  13.251  0.00  0.00    +0.119 C 
BRANCH  19  20
ATOM     20  N   UNL     1      68.595  52.350  12.639  0.00  0.00    -0.302 NA
ATOM     21  C   UNL     1      68.595  50.843  12.913  0.00  0.00    +0.066 C 
ATOM     22  C   UNL     1      69.823  50.143  12.246  0.00  0.00    -0.064 C 
ATOM     23  N   UNL     1      71.113  50.786  12.759  0.00  0.00    +0.379 N 
ATOM     24  C   UNL     1      72.272  50.092  12.179  0.00  0.00    -0.096 C 
ATOM     25  H   UNL     1      71.148  50.638  13.864  0.00  0.00    -0.082 HD
ATOM     26  C   UNL     1      71.121  52.285  12.494  0.00  0.00    -0.064 C 
ATOM     27  C   UNL     1      69.880  52.966  13.135  0.00  0.00    +0.066 C 
ENDBRANCH  19  20
ENDBRANCH  18  19
ENDBRANCH  14  15
ENDBRANCH  12  13
TORSDOF 6
ENDMDL
MODEL 2
REMARK VINA RESULT:      -9.0      5.468     10.823
REMARK  Name = C:\Users\Docking\Desktop\test protocol\1iep_ligandH.pdb
REMARK  8 active torsions:
REMARK  status: ('A' for Active; 'I' for Inactive)
REMARK    1  A    between atoms: _5  and  _11
REMARK    2  A    between atoms: _19  and  _21
REMARK    3  A    between atoms: _22  and  _66
REMARK    4  A    between atoms: _27  and  _30
REMARK    5  A    between atoms: _32  and  _33
REMARK    6  A    between atoms: _38  and  _43
REMARK    7  A    between atoms: _43  and  _46
REMARK    8  A    between atoms: _53  and  _55
REMARK                            x       y       z     vdW  Elec       q    Type
REMARK                         _______ _______ _______ _____ _____    ______ ____
ROOT
ATOM     10  C   UNL     1      69.135  54.718  19.089  0.00  0.00    +0.038 A 
ATOM     11  C   UNL     1      69.714  54.244  20.294  0.00  0.00    +0.047 A 
ATOM     12  C   UNL     1      69.148  53.108  21.005  0.00  0.00    +0.035 A 
ATOM     32  C   UNL     1      67.992  52.478  20.460  0.00  0.00    +0.024 A 
ATOM     33  C   UNL     1      67.389  52.947  19.237  0.00  0.00    +0.007 A 
ATOM     34  C   UNL     1      67.942  54.068  18.532  0.00  0.00    -0.029 A 
ATOM     35  C   UNL     1      67.251  54.533  17.229  0.00  0.00    +0.045 C 
ENDROOT
BRANCH  10   9
ATOM      4  C   UNL     1      69.691  59.440  18.433  0.00  0.00    +0.077 A 
ATOM      5  C   UNL     1      68.713  59.754  19.434  0.00  0.00    +0.048 A 
ATOM      6  C   UNL     1      68.084  58.672  20.090  0.00  0.00    +0.116 A 
ATOM      7  N   UNL     1      68.418  57.376  19.761  0.00  0.00    -0.223 NA
ATOM      8  C   UNL     1      69.364  57.107  18.789  0.00  0.00    +0.220 A 
ATOM      9  N   UNL     1      69.720  55.812  18.447  0.00  0.00    -0.283 N 
ATOM     36  H   UNL     1      70.417  55.656  17.720  0.00  0.00    +0.155 HD
ATOM     37  N   UNL     1      69.977  58.124  18.147  0.00  0.00    -0.214 NA
BRANCH   4   3
ATOM      1  C   UNL     1      71.523  61.338  15.545  0.00  0.00    +0.020 A 
ATOM      2  C   UNL     1      70.796  60.308  16.250  0.00  0.00    +0.013 A 
ATOM      3  C   UNL     1      70.443  60.474  17.655  0.00  0.00    +0.019 A 
ATOM     38  C   UNL     1      70.843  61.705  18.321  0.00  0.00    +0.120 A 
ATOM     39  N   UNL     1      71.544  62.678  17.616  0.00  0.00    -0.263 NA
ATOM     40  C   UNL     1      71.891  62.528  16.265  0.00  0.00    +0.111 A 
ENDBRANCH   4   3
ENDBRANCH  10   9
BRANCH  12  13
ATOM     13  N   UNL     1      69.688  52.587  22.237  0.00  0.00    -0.281 N 
ATOM     14  C   UNL     1      69.636  53.158  23.498  0.00  0.00    +0.248 C 
ATOM     30  O   UNL     1      69.302  54.312  23.721  0.00  0.00    -0.270 OA
ATOM     31  H   UNL     1      70.166  51.689  22.170  0.00  0.00    +0.155 HD
BRANCH  14  15
ATOM     15  C   UNL     1      70.026  52.332  24.681  0.00  0.00    +0.037 A 
ATOM     16  C   UNL     1      70.914  52.863  25.719  0.00  0.00    +0.013 A 
ATOM     17  C   UNL     1      71.288  52.039  26.841  0.00  0.00    +0.005 A 
ATOM     18  C   UNL     1      70.773  50.675  26.931  0.00  0.00    -0.033 A 
ATOM     28  C   UNL     1      69.891  50.175  25.889  0.00  0.00    +0.005 A 
ATOM     29  C   UNL     1      69.522  50.980  24.788  0.00  0.00    +0.013 A 
BRANCH  18  19
ATOM     19  C   UNL     1      71.137  49.718  28.081  0.00  0.00    +0.119 C 
BRANCH  19  20
ATOM     20  N   UNL     1      71.630  48.358  27.710  0.00  0.00    -0.302 NA
ATOM     21  C   UNL     1      70.680  47.254  28.182  0.00  0.00    +0.066 C 
ATOM     22  C   UNL     1      71.199  45.839  27.766  0.00  0.00    -0.064 C 
ATOM     23  N   UNL     1      72.602  45.626  28.335  0.00  0.00    +0.379 N 
ATOM     24  C   UNL     1      73.070  44.274  27.994  0.00  0.00    -0.096 C 
ATOM     25  H   UNL     1      72.530  45.689  29.445  0.00  0.00    -0.082 HD
ATOM     26  C   UNL     1      73.553  46.721  27.872  0.00  0.00    -0.064 C 
ATOM     27  C   UNL     1      73.013  48.124  28.265  0.00  0.00    +0.066 C 
ENDBRANCH  19  20
ENDBRANCH  18  19
ENDBRANCH  14  15
ENDBRANCH  12  13
TORSDOF 6
ENDMDL
MODEL 3
REMARK VINA RESULT:      -9.0      4.951     11.052
REMARK  Name = C:\Users\Docking\Desktop\test protocol\1iep_ligandH.pdb
REMARK  8 active torsions:
REMARK  status: ('A' for Active; 'I' for Inactive)
REMARK    1  A    between atoms: _5  and  _11
REMARK    2  A    between atoms: _19  and  _21
REMARK    3  A    between atoms: _22  and  _66
REMARK    4  A    between atoms: _27  and  _30
REMARK    5  A    between atoms: _32  and  _33
REMARK    6  A    between atoms: _38  and  _43
REMARK    7  A    between atoms: _43  and  _46
REMARK    8  A    between atoms: _53  and  _55
REMARK                            x       y       z     vdW  Elec       q    Type
REMARK                         _______ _______ _______ _____ _____    ______ ____
ROOT
ATOM     10  C   UNL     1      69.202  54.605  19.148  0.00  0.00    +0.038 A 
ATOM     11  C   UNL     1      69.785  54.157  20.361  0.00  0.00    +0.047 A 
ATOM     12  C   UNL     1      69.234  53.024  21.087  0.00  0.00    +0.035 A 
ATOM     32  C   UNL     1      68.089  52.368  20.548  0.00  0.00    +0.024 A 
ATOM     33  C   UNL     1      67.483  52.811  19.317  0.00  0.00    +0.007 A 
ATOM     34  C   UNL     1      68.021  53.930  18.597  0.00  0.00    -0.029 A 
ATOM     35  C   UNL     1      67.327  54.366  17.286  0.00  0.00    +0.045 C 
ENDROOT
BRANCH  10   9
ATOM      4  C   UNL     1      69.730  59.326  18.462  0.00  0.00    +0.077 A 
ATOM      5  C   UNL     1      68.768  59.642  19.478  0.00  0.00    +0.048 A 
ATOM      6  C   UNL     1      68.154  58.560  20.148  0.00  0.00    +0.116 A 
ATOM      7  N   UNL     1      68.487  57.263  19.820  0.00  0.00    -0.223 NA
ATOM      8  C   UNL     1      69.418  56.994  18.834  0.00  0.00    +0.220 A 
ATOM      9  N   UNL     1      69.773  55.698  18.492  0.00  0.00    -0.283 N 
ATOM     36  H   UNL     1      70.459  55.542  17.754  0.00  0.00    +0.155 HD
ATOM     37  N   UNL     1      70.017  58.010  18.178  0.00  0.00    -0.214 NA
BRANCH   4   3
ATOM      1  C   UNL     1      71.576  61.186  15.558  0.00  0.00    +0.020 A 
ATOM      2  C   UNL     1      70.867  60.156  16.281  0.00  0.00    +0.013 A 
ATOM      3  C   UNL     1      70.466  60.360  17.667  0.00  0.00    +0.019 A 
ATOM     38  C   UNL     1      70.800  61.628  18.297  0.00  0.00    +0.120 A 
ATOM     39  N   UNL     1      71.484  62.602  17.576  0.00  0.00    -0.263 NA
ATOM     40  C   UNL     1      71.877  62.416  16.242  0.00  0.00    +0.111 A 
ENDBRANCH   4   3
ENDBRANCH  10   9
BRANCH  12  13
ATOM     13  N   UNL     1      69.778  52.529  22.327  0.00  0.00    -0.281 N 
ATOM     14  C   UNL     1      69.726  53.123  23.578  0.00  0.00    +0.248 C 
ATOM     30  O   UNL     1      69.387  54.280  23.779  0.00  0.00    -0.270 OA
ATOM     31  H   UNL     1      70.260  51.631  22.277  0.00  0.00    +0.155 HD
BRANCH  14  15
ATOM     15  C   UNL     1      70.122  52.322  24.775  0.00  0.00    +0.037 A 
ATOM     16  C   UNL     1      69.638  50.952  24.966  0.00  0.00    +0.013 A 
ATOM     17  C   UNL     1      70.022  50.207  26.139  0.00  0.00    +0.005 A 
ATOM     18  C   UNL     1      70.896  50.830  27.130  0.00  0.00    -0.033 A 
ATOM     28  C   UNL     1      71.365  52.189  26.913  0.00  0.00    +0.005 A 
ATOM     29  C   UNL     1      70.991  52.922  25.765  0.00  0.00    +0.013 A 
BRANCH  18  19
ATOM     19  C   UNL     1      71.338  50.117  28.421  0.00  0.00    +0.119 C 
BRANCH  19  20
ATOM     20  N   UNL     1      72.518  49.205  28.329  0.00  0.00    -0.302 NA
ATOM     21  C   UNL     1      72.306  47.911  29.120  0.00  0.00    +0.066 C 
ATOM     22  C   UNL     1      73.540  46.959  28.994  0.00  0.00    -0.064 C 
ATOM     23  N   UNL     1      74.795  47.689  29.476  0.00  0.00    +0.379 N 
ATOM     24  C   UNL     1      75.947  46.778  29.413  0.00  0.00    -0.096 C 
ATOM     25  H   UNL     1      74.637  47.962  30.545  0.00  0.00    -0.082 HD
ATOM     26  C   UNL     1      75.011  48.979  28.697  0.00  0.00    -0.064 C 
ATOM     27  C   UNL     1      73.767  49.905  28.804  0.00  0.00    +0.066 C 
ENDBRANCH  19  20
ENDBRANCH  18  19
ENDBRANCH  14  15
ENDBRANCH  12  13
TORSDOF 6
ENDMDL
MODEL 4
REMARK VINA RESULT:      -8.9      6.021      7.907
REMARK  Name = C:\Users\Docking\Desktop\test protocol\1iep_ligandH.pdb
REMARK  8 active torsions:
REMARK  status: ('A' for Active; 'I' for Inactive)
REMARK    1  A    between atoms: _5  and  _11
REMARK    2  A    between atoms: _19  and  _21
REMARK    3  A    between atoms: _22  and  _66
REMARK    4  A    between atoms: _27  and  _30
REMARK    5  A    between atoms: _32  and  _33
REMARK    6  A    between atoms: _38  and  _43
REMARK    7  A    between atoms: _43  and  _46
REMARK    8  A    between atoms: _53  and  _55
REMARK                            x       y       z     vdW  Elec       q    Type
REMARK                         _______ _______ _______ _____ _____    ______ ____
ROOT
ATOM     10  C   UNL     1      69.246  53.385  20.804  0.00  0.00    +0.038 A 
ATOM     11  C   UNL     1      69.685  54.706  20.530  0.00  0.00    +0.047 A 
ATOM     12  C   UNL     1      69.074  55.498  19.474  0.00  0.00    +0.035 A 
ATOM     32  C   UNL     1      68.017  54.914  18.717  0.00  0.00    +0.024 A 
ATOM     33  C   UNL     1      67.560  53.573  18.981  0.00  0.00    +0.007 A 
ATOM     34  C   UNL     1      68.160  52.786  20.020  0.00  0.00    -0.029 A 
ATOM     35  C   UNL     1      67.633  51.351  20.254  0.00  0.00    +0.045 C 
ENDROOT
BRANCH  10   9
ATOM      4  C   UNL     1      69.679  52.100  25.408  0.00  0.00    +0.077 A 
ATOM      5  C   UNL     1      68.591  52.946  25.808  0.00  0.00    +0.048 A 
ATOM      6  C   UNL     1      67.952  53.701  24.799  0.00  0.00    +0.116 A 
ATOM      7  N   UNL     1      68.376  53.608  23.491  0.00  0.00    -0.223 NA
ATOM      8  C   UNL     1      69.430  52.784  23.140  0.00  0.00    +0.220 A 
ATOM      9  N   UNL     1      69.868  52.670  21.830  0.00  0.00    -0.283 N 
ATOM     36  H   UNL     1      70.653  52.057  21.612  0.00  0.00    +0.155 HD
ATOM     37  N   UNL     1      70.058  52.055  24.085  0.00  0.00    -0.214 NA
BRANCH   4   3
ATOM      1  C   UNL     1      72.169  50.897  28.174  0.00  0.00    +0.020 A 
ATOM      2  C   UNL     1      71.450  51.772  27.277  0.00  0.00    +0.013 A 
ATOM      3  C   UNL     1      70.452  51.239  26.357  0.00  0.00    +0.019 A 
ATOM     38  C   UNL     1      70.203  49.806  26.372  0.00  0.00    +0.120 A 
ATOM     39  N   UNL     1      70.912  48.987  27.246  0.00  0.00    -0.263 NA
ATOM     40  C   UNL     1      71.876  49.488  28.134  0.00  0.00    +0.111 A 
ENDBRANCH   4   3
ENDBRANCH  10   9
BRANCH  12  13
ATOM     13  N   UNL     1      69.483  56.841  19.145  0.00  0.00    -0.281 N 
ATOM     14  C   UNL     1      68.984  58.031  19.651  0.00  0.00    +0.248 C 
ATOM     30  O   UNL     1      67.959  58.126  20.309  0.00  0.00    -0.270 OA
ATOM     31  H   UNL     1      70.230  56.926  18.456  0.00  0.00    +0.155 HD
BRANCH  14  15
ATOM     15  C   UNL     1      69.724  59.300  19.374  0.00  0.00    +0.037 A 
ATOM     16  C   UNL     1      71.150  59.431  19.685  0.00  0.00    +0.013 A 
ATOM     17  C   UNL     1      71.836  60.672  19.423  0.00  0.00    +0.005 A 
ATOM     18  C   UNL     1      71.095  61.791  18.845  0.00  0.00    -0.033 A 
ATOM     28  C   UNL     1      69.683  61.632  18.542  0.00  0.00    +0.005 A 
ATOM     29  C   UNL     1      69.007  60.417  18.798  0.00  0.00    +0.013 A 
BRANCH  18  19
ATOM     19  C   UNL     1      71.741  63.159  18.552  0.00  0.00    +0.119 C 
BRANCH  19  20
ATOM     20  N   UNL     1      71.698  63.647  17.141  0.00  0.00    -0.302 NA
ATOM     21  C   UNL     1      72.395  62.681  16.178  0.00  0.00    +0.066 C 
ATOM     22  C   UNL     1      72.321  63.196  14.704  0.00  0.00    -0.064 C 
ATOM     23  N   UNL     1      72.947  64.589  14.621  0.00  0.00    +0.379 N 
ATOM     24  C   UNL     1      72.932  65.052  13.226  0.00  0.00    -0.096 C 
ATOM     25  H   UNL     1      74.013  64.500  14.937  0.00  0.00    -0.082 HD
ATOM     26  C   UNL     1      72.263  65.555  15.578  0.00  0.00    -0.064 C 
ATOM     27  C   UNL     1      72.316  65.020  17.036  0.00  0.00    +0.066 C 
ENDBRANCH  19  20
ENDBRANCH  18  19
ENDBRANCH  14  15
ENDBRANCH  12  13
TORSDOF 6
ENDMDL
MODEL 5
REMARK VINA RESULT:      -8.9      2.348     12.311
REMARK  Name = C:\Users\Docking\Desktop\test protocol\1iep_ligandH.pdb
REMARK  8 active torsions:
REMARK  status: ('A' for Active; 'I' for Inactive)
REMARK    1  A    between atoms: _5  and  _11
REMARK    2  A    between atoms: _19  and  _21
REMARK    3  A    between atoms: _22  and  _66
REMARK    4  A    between atoms: _27  and  _30
REMARK    5  A    between atoms: _32  and  _33
REMARK    6  A    between atoms: _38  and  _43
REMARK    7  A    between atoms: _43  and  _46
REMARK    8  A    between atoms: _53  and  _55
REMARK                            x       y       z     vdW  Elec       q    Type
REMARK                         _______ _______ _______ _____ _____    ______ ____
ROOT
ATOM     10  C   UNL     1      67.512  52.658  15.587  0.00  0.00    +0.038 A 
ATOM     11  C   UNL     1      67.853  52.608  16.963  0.00  0.00    +0.047 A 
ATOM     12  C   UNL     1      68.120  53.822  17.717  0.00  0.00    +0.035 A 
ATOM     32  C   UNL     1      68.029  55.073  17.038  0.00  0.00    +0.024 A 
ATOM     33  C   UNL     1      67.685  55.142  15.640  0.00  0.00    +0.007 A 
ATOM     34  C   UNL     1      67.423  53.947  14.890  0.00  0.00    -0.029 A 
ATOM     35  C   UNL     1      67.065  54.082  13.392  0.00  0.00    +0.045 C 
ENDROOT
BRANCH  10   9
ATOM      4  C   UNL     1      68.799  49.164  12.559  0.00  0.00    +0.077 A 
ATOM      5  C   UNL     1      70.059  49.790  12.278  0.00  0.00    +0.048 A 
ATOM      6  C   UNL     1      70.334  51.014  12.928  0.00  0.00    +0.116 A 
ATOM      7  N   UNL     1      69.411  51.562  13.792  0.00  0.00    -0.223 NA
ATOM      8  C   UNL     1      68.205  50.932  14.040  0.00  0.00    +0.220 A 
ATOM      9  N   UNL     1      67.265  51.461  14.911  0.00  0.00    -0.283 N 
ATOM     36  H   UNL     1      66.384  50.970  15.061  0.00  0.00    +0.155 HD
ATOM     37  N   UNL     1      67.918  49.763  13.430  0.00  0.00    -0.214 NA
BRANCH   4   3
ATOM      1  C   UNL     1      68.589  45.996  10.274  0.00  0.00    +0.020 A 
ATOM      2  C   UNL     1      69.049  47.251  10.822  0.00  0.00    +0.013 A 
ATOM      3  C   UNL     1      68.365  47.866  11.952  0.00  0.00    +0.019 A 
ATOM     38  C   UNL     1      67.210  47.179  12.510  0.00  0.00    +0.120 A 
ATOM     39  N   UNL     1      66.789  45.972  11.961  0.00  0.00    -0.263 NA
ATOM     40  C   UNL     1      67.438  45.372  10.872  0.00  0.00    +0.111 A 
ENDBRANCH   4   3
ENDBRANCH  10   9
BRANCH  12  13
ATOM     13  N   UNL     1      68.478  53.833  19.113  0.00  0.00    -0.281 N 
ATOM     14  C   UNL     1      67.658  54.084  20.201  0.00  0.00    +0.248 C 
ATOM     30  O   UNL     1      66.531  54.550  20.124  0.00  0.00    -0.270 OA
ATOM     31  H   UNL     1      69.455  53.630  19.326  0.00  0.00    +0.155 HD
BRANCH  14  15
ATOM     15  C   UNL     1      68.168  53.787  21.574  0.00  0.00    +0.037 A 
ATOM     16  C   UNL     1      67.640  54.485  22.749  0.00  0.00    +0.013 A 
ATOM     17  C   UNL     1      68.162  54.192  24.060  0.00  0.00    +0.005 A 
ATOM     18  C   UNL     1      69.219  53.194  24.203  0.00  0.00    -0.033 A 
ATOM     28  C   UNL     1      69.721  52.513  23.022  0.00  0.00    +0.005 A 
ATOM     29  C   UNL     1      69.213  52.798  21.735  0.00  0.00    +0.013 A 
BRANCH  18  19
ATOM     19  C   UNL     1      69.850  52.833  25.561  0.00  0.00    +0.119 C 
BRANCH  19  20
ATOM     20  N   UNL     1      71.318  53.059  25.715  0.00  0.00    -0.302 NA
ATOM     21  C   UNL     1      71.832  52.591  27.079  0.00  0.00    +0.066 C 
ATOM     22  C   UNL     1      73.373  52.814  27.214  0.00  0.00    -0.064 C 
ATOM     23  N   UNL     1      73.693  54.294  26.993  0.00  0.00    +0.379 N 
ATOM     24  C   UNL     1      75.134  54.517  27.177  0.00  0.00    -0.096 C 
ATOM     25  H   UNL     1      73.157  54.876  27.779  0.00  0.00    -0.082 HD
ATOM     26  C   UNL     1      73.183  54.768  25.640  0.00  0.00    -0.064 C 
ATOM     27  C   UNL     1      71.655  54.515  25.505  0.00  0.00    +0.066 C 
ENDBRANCH  19  20
ENDBRANCH  18  19
ENDBRANCH  14  15
ENDBRANCH  12  13
TORSDOF 6
ENDMDL
