MODEL 1
REMARK VINA RESULT:      -8.6      0.000      0.000
REMARK  Name = C:\Users\Docking\Desktop\test protocol\1iep_ligandH.pdb
REMARK  8 active torsions:
REMARK  status: ('A' for Active; 'I' for Inactive)
REMARK    1  A    between atoms: _5  and  _11
REMARK    2  A    between atoms: _19  and  _21
REMARK    3  A    between atoms: _22  and  _66
REMARK    4  A    between atoms: _27  and  _30
REMARK    5  A    between atoms: _32  and  _33
REMARK    6  A    between atoms: _38  and  _43
REMARK    7  A    between atoms: _43  and  _46
REMARK    8  A    between atoms: _53  and  _55
REMARK                            x       y       z     vdW  Elec       q    Type
REMARK                         _______ _______ _______ _____ _____    ______ ____
ROOT
ATOM     10  C   UNL     1      19.102 -17.001 -20.732  0.00  0.00    +0.038 A 
ATOM     11  C   UNL     1      19.750 -15.843 -20.232  0.00  0.00    +0.047 A 
ATOM     12  C   UNL     1      20.773 -15.159 -21.007  0.00  0.00    +0.035 A 
ATOM     32  C   UNL     1      21.110 -15.681 -22.290  0.00  0.00    +0.024 A 
ATOM     33  C   UNL     1      20.462 -16.857 -22.814  0.00  0.00    +0.007 A 
ATOM     34  C   UNL     1      19.453 -17.538 -22.052  0.00  0.00    -0.029 A 
ATOM     35  C   UNL     1      18.797 -18.799 -22.661  0.00  0.00    +0.045 C 
ENDROOT
BRANCH  10   9
ATOM      4  C   UNL     1      17.705 -20.293 -17.530  0.00  0.00    +0.077 A 
ATOM      5  C   UNL     1      19.025 -20.849 -17.438  0.00  0.00    +0.048 A 
ATOM      6  C   UNL     1      20.033 -20.263 -18.236  0.00  0.00    +0.116 A 
ATOM      7  N   UNL     1      19.733 -19.201 -19.061  0.00  0.00    -0.223 NA
ATOM      8  C   UNL     1      18.449 -18.690 -19.128  0.00  0.00    +0.220 A 
ATOM      9  N   UNL     1      18.126 -17.618 -19.945  0.00  0.00    -0.283 N 
ATOM     36  H   UNL     1      17.166 -17.275 -19.972  0.00  0.00    +0.155 HD
ATOM     37  N   UNL     1      17.469 -19.233 -18.377  0.00  0.00    -0.214 NA
BRANCH   4   3
ATOM      1  C   UNL     1      15.357 -21.342 -14.583  0.00  0.00    +0.020 A 
ATOM      2  C   UNL     1      16.514 -20.842 -15.291  0.00  0.00    +0.013 A 
ATOM      3  C   UNL     1      16.535 -20.801 -16.748  0.00  0.00    +0.019 A 
ATOM     38  C   UNL     1      15.360 -21.275 -17.464  0.00  0.00    +0.120 A 
ATOM     39  N   UNL     1      14.262 -21.752 -16.755  0.00  0.00    -0.263 NA
ATOM     40  C   UNL     1      14.231 -21.798 -15.353  0.00  0.00    +0.111 A 
ENDBRANCH   4   3
ENDBRANCH  10   9
BRANCH  12  13
ATOM     13  N   UNL     1      21.471 -13.984 -20.548  0.00  0.00    -0.281 N 
ATOM     14  C   UNL     1      22.087 -13.006 -21.312  0.00  0.00    +0.248 C 
ATOM     30  O   UNL     1      22.316 -13.106 -22.508  0.00  0.00    -0.270 OA
ATOM     31  H   UNL     1      21.517 -13.858 -19.536  0.00  0.00    +0.155 HD
BRANCH  14  15
ATOM     15  C   UNL     1      22.524 -11.740 -20.648  0.00  0.00    +0.037 A 
ATOM     16  C   UNL     1      21.876 -10.461 -20.950  0.00  0.00    +0.013 A 
ATOM     17  C   UNL     1      22.329  -9.252 -20.308  0.00  0.00    +0.005 A 
ATOM     18  C   UNL     1      23.435  -9.317 -19.356  0.00  0.00    -0.033 A 
ATOM     28  C   UNL     1      24.056 -10.600 -19.071  0.00  0.00    +0.005 A 
ATOM     29  C   UNL     1      23.616 -11.787 -19.699  0.00  0.00    +0.013 A 
BRANCH  18  19
ATOM     19  C   UNL     1      23.997  -8.075 -18.641  0.00  0.00    +0.119 C 
BRANCH  19  20
ATOM     20  N   UNL     1      24.159  -6.833 -19.453  0.00  0.00    -0.302 NA
ATOM     21  C   UNL     1      25.225  -6.993 -20.541  0.00  0.00    +0.066 C 
ATOM     22  C   UNL     1      25.365  -5.691 -21.396  0.00  0.00    -0.064 C 
ATOM     23  N   UNL     1      25.701  -4.515 -20.478  0.00  0.00    +0.379 N 
ATOM     24  C   UNL     1      25.891  -3.301 -21.286  0.00  0.00    -0.096 C 
ATOM     25  H   UNL     1      26.670  -4.743 -19.977  0.00  0.00    -0.082 HD
ATOM     26  C   UNL     1      24.647  -4.350 -19.392  0.00  0.00    -0.064 C 
ATOM     27  C   UNL     1      24.495  -5.659 -18.567  0.00  0.00    +0.066 C 
ENDBRANCH  19  20
ENDBRANCH  18  19
ENDBRANCH  14  15
ENDBRANCH  12  13
TORSDOF 6
ENDMDL
MODEL 2
REMARK VINA RESULT:      -8.3      7.920     13.636
REMARK  Name = C:\Users\Docking\Desktop\test protocol\1iep_ligandH.pdb
REMARK  8 active torsions:
REMARK  status: ('A' for Active; 'I' for Inactive)
REMARK    1  A    between atoms: _5  and  _11
REMARK    2  A    between atoms: _19  and  _21
REMARK    3  A    between atoms: _22  and  _66
REMARK    4  A    between atoms: _27  and  _30
REMARK    5  A    between atoms: _32  and  _33
REMARK    6  A    between atoms: _38  and  _43
REMARK    7  A    between atoms: _43  and  _46
REMARK    8  A    between atoms: _53  and  _55
REMARK                            x       y       z     vdW  Elec       q    Type
REMARK                         _______ _______ _______ _____ _____    ______ ____
ROOT
ATOM     10  C   UNL     1      23.405  -8.689 -21.023  0.00  0.00    +0.038 A 
ATOM     11  C   UNL     1      24.365  -9.243 -21.908  0.00  0.00    +0.047 A 
ATOM     12  C   UNL     1      24.328 -10.650 -22.274  0.00  0.00    +0.035 A 
ATOM     32  C   UNL     1      23.297 -11.465 -21.721  0.00  0.00    +0.024 A 
ATOM     33  C   UNL     1      22.314 -10.919 -20.818  0.00  0.00    +0.007 A 
ATOM     34  C   UNL     1      22.347  -9.532 -20.452  0.00  0.00    -0.029 A 
ATOM     35  C   UNL     1      21.271  -9.002 -19.476  0.00  0.00    +0.045 C 
ENDROOT
BRANCH  10   9
ATOM      4  C   UNL     1      24.771  -5.086 -18.161  0.00  0.00    +0.077 A 
ATOM      5  C   UNL     1      25.345  -5.986 -17.203  0.00  0.00    +0.048 A 
ATOM      6  C   UNL     1      25.261  -7.369 -17.481  0.00  0.00    +0.116 A 
ATOM      7  N   UNL     1      24.647  -7.808 -18.634  0.00  0.00    -0.223 NA
ATOM      8  C   UNL     1      24.103  -6.913 -19.536  0.00  0.00    +0.220 A 
ATOM      9  N   UNL     1      23.488  -7.331 -20.706  0.00  0.00    -0.283 N 
ATOM     36  H   UNL     1      23.091  -6.640 -21.343  0.00  0.00    +0.155 HD
ATOM     37  N   UNL     1      24.168  -5.587 -19.293  0.00  0.00    -0.214 NA
BRANCH   4   3
ATOM      1  C   UNL     1      24.501  -1.256 -18.910  0.00  0.00    +0.020 A 
ATOM      2  C   UNL     1      24.476  -2.687 -19.108  0.00  0.00    +0.013 A 
ATOM      3  C   UNL     1      24.783  -3.596 -18.011  0.00  0.00    +0.019 A 
ATOM     38  C   UNL     1      25.113  -3.021 -16.716  0.00  0.00    +0.120 A 
ATOM     39  N   UNL     1      25.130  -1.639 -16.555  0.00  0.00    -0.263 NA
ATOM     40  C   UNL     1      24.839  -0.754 -17.604  0.00  0.00    +0.111 A 
ENDBRANCH   4   3
ENDBRANCH  10   9
BRANCH  12  13
ATOM     13  N   UNL     1      25.280 -11.270 -23.162  0.00  0.00    -0.281 N 
ATOM     14  C   UNL     1      25.683 -10.837 -24.414  0.00  0.00    +0.248 C 
ATOM     30  O   UNL     1      25.124  -9.960 -25.056  0.00  0.00    -0.270 OA
ATOM     31  H   UNL     1      25.709 -12.132 -22.826  0.00  0.00    +0.155 HD
BRANCH  14  15
ATOM     15  C   UNL     1      26.871 -11.482 -25.053  0.00  0.00    +0.037 A 
ATOM     16  C   UNL     1      28.105 -10.730 -25.295  0.00  0.00    +0.013 A 
ATOM     17  C   UNL     1      29.230 -11.371 -25.929  0.00  0.00    +0.005 A 
ATOM     18  C   UNL     1      29.126 -12.774 -26.323  0.00  0.00    -0.033 A 
ATOM     28  C   UNL     1      27.892 -13.498 -26.066  0.00  0.00    +0.005 A 
ATOM     29  C   UNL     1      26.787 -12.872 -25.446  0.00  0.00    +0.013 A 
BRANCH  18  19
ATOM     19  C   UNL     1      30.269 -13.533 -27.023  0.00  0.00    +0.119 C 
BRANCH  19  20
ATOM     20  N   UNL     1      29.914 -14.794 -27.740  0.00  0.00    -0.302 NA
ATOM     21  C   UNL     1      30.241 -16.038 -26.909  0.00  0.00    +0.066 C 
ATOM     22  C   UNL     1      29.842 -17.348 -27.664  0.00  0.00    -0.064 C 
ATOM     23  N   UNL     1      30.561 -17.394 -29.013  0.00  0.00    +0.379 N 
ATOM     24  C   UNL     1      30.233 -18.652 -29.701  0.00  0.00    -0.096 C 
ATOM     25  H   UNL     1      31.657 -17.393 -28.813  0.00  0.00    -0.082 HD
ATOM     26  C   UNL     1      30.243 -16.159 -29.845  0.00  0.00    -0.064 C 
ATOM     27  C   UNL     1      30.616 -14.862 -29.074  0.00  0.00    +0.066 C 
ENDBRANCH  19  20
ENDBRANCH  18  19
ENDBRANCH  14  15
ENDBRANCH  12  13
TORSDOF 6
ENDMDL
MODEL 3
REMARK VINA RESULT:      -8.3      7.328     12.714
REMARK  Name = C:\Users\Docking\Desktop\test protocol\1iep_ligandH.pdb
REMARK  8 active torsions:
REMARK  status: ('A' for Active; 'I' for Inactive)
REMARK    1  A    between atoms: _5  and  _11
REMARK    2  A    between atoms: _19  and  _21
REMARK    3  A    between atoms: _22  and  _66
REMARK    4  A    between atoms: _27  and  _30
REMARK    5  A    between atoms: _32  and  _33
REMARK    6  A    between atoms: _38  and  _43
REMARK    7  A    between atoms: _43  and  _46
REMARK    8  A    between atoms: _53  and  _55
REMARK                            x       y       z     vdW  Elec       q    Type
REMARK                         _______ _______ _______ _____ _____    ______ ____
ROOT
ATOM     10  C   UNL     1      23.579 -10.389 -20.284  0.00  0.00    +0.038 A 
ATOM     11  C   UNL     1      24.609 -10.507 -21.252  0.00  0.00    +0.047 A 
ATOM     12  C   UNL     1      24.452 -11.363 -22.417  0.00  0.00    +0.035 A 
ATOM     32  C   UNL     1      23.231 -12.084 -22.566  0.00  0.00    +0.024 A 
ATOM     33  C   UNL     1      22.174 -11.977 -21.591  0.00  0.00    +0.007 A 
ATOM     34  C   UNL     1      22.325 -11.135 -20.439  0.00  0.00    -0.029 A 
ATOM     35  C   UNL     1      21.161 -11.064 -19.422  0.00  0.00    +0.045 C 
ENDROOT
BRANCH  10   9
ATOM      4  C   UNL     1      24.374  -6.073 -18.340  0.00  0.00    +0.077 A 
ATOM      5  C   UNL     1      24.413  -5.436 -19.624  0.00  0.00    +0.048 A 
ATOM      6  C   UNL     1      24.230  -6.255 -20.761  0.00  0.00    +0.116 A 
ATOM      7  N   UNL     1      24.026  -7.610 -20.612  0.00  0.00    -0.223 NA
ATOM      8  C   UNL     1      23.996  -8.193 -19.358  0.00  0.00    +0.220 A 
ATOM      9  N   UNL     1      23.784  -9.552 -19.185  0.00  0.00    -0.283 N 
ATOM     36  H   UNL     1      23.776  -9.945 -18.244  0.00  0.00    +0.155 HD
ATOM     37  N   UNL     1      24.169  -7.432 -18.257  0.00  0.00    -0.214 NA
BRANCH   4   3
ATOM      1  C   UNL     1      24.485  -3.253 -15.632  0.00  0.00    +0.020 A 
ATOM      2  C   UNL     1      24.304  -3.911 -16.905  0.00  0.00    +0.013 A 
ATOM      3  C   UNL     1      24.547  -5.341 -17.045  0.00  0.00    +0.019 A 
ATOM     38  C   UNL     1      24.975  -6.082 -15.868  0.00  0.00    +0.120 A 
ATOM     39  N   UNL     1      25.143  -5.421 -14.655  0.00  0.00    -0.263 NA
ATOM     40  C   UNL     1      24.913  -4.045 -14.509  0.00  0.00    +0.111 A 
ENDBRANCH   4   3
ENDBRANCH  10   9
BRANCH  12  13
ATOM     13  N   UNL     1      25.466 -11.529 -23.429  0.00  0.00    -0.281 N 
ATOM     14  C   UNL     1      25.780 -10.669 -24.468  0.00  0.00    +0.248 C 
ATOM     30  O   UNL     1      25.091  -9.721 -24.814  0.00  0.00    -0.270 OA
ATOM     31  H   UNL     1      26.019 -12.384 -23.372  0.00  0.00    +0.155 HD
BRANCH  14  15
ATOM     15  C   UNL     1      27.035 -10.904 -25.246  0.00  0.00    +0.037 A 
ATOM     16  C   UNL     1      27.821  -9.787 -25.776  0.00  0.00    +0.013 A 
ATOM     17  C   UNL     1      29.018 -10.042 -26.537  0.00  0.00    +0.005 A 
ATOM     18  C   UNL     1      29.438 -11.421 -26.771  0.00  0.00    -0.033 A 
ATOM     28  C   UNL     1      28.643 -12.510 -26.228  0.00  0.00    +0.005 A 
ATOM     29  C   UNL     1      27.468 -12.264 -25.483  0.00  0.00    +0.013 A 
BRANCH  18  19
ATOM     19  C   UNL     1      30.690 -11.787 -27.589  0.00  0.00    +0.119 C 
BRANCH  19  20
ATOM     20  N   UNL     1      30.808 -13.198 -28.066  0.00  0.00    -0.302 NA
ATOM     21  C   UNL     1      32.044 -13.897 -27.492  0.00  0.00    +0.066 C 
ATOM     22  C   UNL     1      32.139 -15.378 -27.983  0.00  0.00    -0.064 C 
ATOM     23  N   UNL     1      32.162 -15.405 -29.512  0.00  0.00    +0.379 N 
ATOM     24  C   UNL     1      32.309 -16.793 -29.976  0.00  0.00    -0.096 C 
ATOM     25  H   UNL     1      33.062 -14.839 -29.847  0.00  0.00    -0.082 HD
ATOM     26  C   UNL     1      30.937 -14.710 -30.091  0.00  0.00    -0.064 C 
ATOM     27  C   UNL     1      30.836 -13.248 -29.573  0.00  0.00    +0.066 C 
ENDBRANCH  19  20
ENDBRANCH  18  19
ENDBRANCH  14  15
ENDBRANCH  12  13
TORSDOF 6
ENDMDL
MODEL 4
REMARK VINA RESULT:      -8.2      3.415     13.915
REMARK  Name = C:\Users\Docking\Desktop\test protocol\1iep_ligandH.pdb
REMARK  8 active torsions:
REMARK  status: ('A' for Active; 'I' for Inactive)
REMARK    1  A    between atoms: _5  and  _11
REMARK    2  A    between atoms: _19  and  _21
REMARK    3  A    between atoms: _22  and  _66
REMARK    4  A    between atoms: _27  and  _30
REMARK    5  A    between atoms: _32  and  _33
REMARK    6  A    between atoms: _38  and  _43
REMARK    7  A    between atoms: _43  and  _46
REMARK    8  A    between atoms: _53  and  _55
REMARK                            x       y       z     vdW  Elec       q    Type
REMARK                         _______ _______ _______ _____ _____    ______ ____
ROOT
ATOM     10  C   UNL     1      20.474 -17.595 -19.732  0.00  0.00    +0.038 A 
ATOM     11  C   UNL     1      19.138 -17.796 -19.299  0.00  0.00    +0.047 A 
ATOM     12  C   UNL     1      18.475 -19.079 -19.477  0.00  0.00    +0.035 A 
ATOM     32  C   UNL     1      19.203 -20.136 -20.097  0.00  0.00    +0.024 A 
ATOM     33  C   UNL     1      20.561 -19.948 -20.544  0.00  0.00    +0.007 A 
ATOM     34  C   UNL     1      21.219 -18.684 -20.374  0.00  0.00    -0.029 A 
ATOM     35  C   UNL     1      22.674 -18.538 -20.878  0.00  0.00    +0.045 C 
ENDROOT
BRANCH  10   9
ATOM      4  C   UNL     1      21.839 -13.269 -21.300  0.00  0.00    +0.077 A 
ATOM      5  C   UNL     1      21.365 -13.535 -22.628  0.00  0.00    +0.048 A 
ATOM      6  C   UNL     1      20.783 -14.800 -22.868  0.00  0.00    +0.116 A 
ATOM      7  N   UNL     1      20.687 -15.722 -21.848  0.00  0.00    -0.223 NA
ATOM      8  C   UNL     1      21.155 -15.434 -20.579  0.00  0.00    +0.220 A 
ATOM      9  N   UNL     1      21.061 -16.343 -19.537  0.00  0.00    -0.283 N 
ATOM     36  H   UNL     1      21.426 -16.095 -18.617  0.00  0.00    +0.155 HD
ATOM     37  N   UNL     1      21.717 -14.233 -20.325  0.00  0.00    -0.214 NA
BRANCH   4   3
ATOM      1  C   UNL     1      24.076 -10.618 -19.492  0.00  0.00    +0.020 A 
ATOM      2  C   UNL     1      23.493 -11.891 -19.850  0.00  0.00    +0.013 A 
ATOM      3  C   UNL     1      22.475 -11.977 -20.890  0.00  0.00    +0.019 A 
ATOM     38  C   UNL     1      22.068 -10.748 -21.553  0.00  0.00    +0.120 A 
ATOM     39  N   UNL     1      22.646  -9.537 -21.186  0.00  0.00    -0.263 NA
ATOM     40  C   UNL     1      23.625  -9.441 -20.186  0.00  0.00    +0.111 A 
ENDBRANCH   4   3
ENDBRANCH  10   9
BRANCH  12  13
ATOM     13  N   UNL     1      17.118 -19.339 -19.065  0.00  0.00    -0.281 N 
ATOM     14  C   UNL     1      16.684 -20.129 -18.012  0.00  0.00    +0.248 C 
ATOM     30  O   UNL     1      17.396 -20.905 -17.392  0.00  0.00    -0.270 OA
ATOM     31  H   UNL     1      16.388 -18.887 -19.616  0.00  0.00    +0.155 HD
BRANCH  14  15
ATOM     15  C   UNL     1      15.250 -20.055 -17.597  0.00  0.00    +0.037 A 
ATOM     16  C   UNL     1      14.849 -20.283 -16.206  0.00  0.00    +0.013 A 
ATOM     17  C   UNL     1      13.457 -20.223 -15.836  0.00  0.00    +0.005 A 
ATOM     18  C   UNL     1      12.456 -19.931 -16.860  0.00  0.00    -0.033 A 
ATOM     28  C   UNL     1      12.882 -19.704 -18.230  0.00  0.00    +0.005 A 
ATOM     29  C   UNL     1      14.246 -19.763 -18.597  0.00  0.00    +0.013 A 
BRANCH  18  19
ATOM     19  C   UNL     1      10.947 -19.869 -16.559  0.00  0.00    +0.119 C 
BRANCH  19  20
ATOM     20  N   UNL     1      10.466 -20.555 -15.323  0.00  0.00    -0.302 NA
ATOM     21  C   UNL     1      10.366 -22.072 -15.510  0.00  0.00    +0.066 C 
ATOM     22  C   UNL     1       9.884 -22.776 -14.200  0.00  0.00    -0.064 C 
ATOM     23  N   UNL     1       8.535 -22.192 -13.778  0.00  0.00    +0.379 N 
ATOM     24  C   UNL     1       8.051 -22.893 -12.579  0.00  0.00    -0.096 C 
ATOM     25  H   UNL     1       7.809 -22.389 -14.600  0.00  0.00    -0.082 HD
ATOM     26  C   UNL     1       8.625 -20.684 -13.592  0.00  0.00    -0.064 C 
ATOM     27  C   UNL     1       9.133 -19.997 -14.890  0.00  0.00    +0.066 C 
ENDBRANCH  19  20
ENDBRANCH  18  19
ENDBRANCH  14  15
ENDBRANCH  12  13
TORSDOF 6
ENDMDL
MODEL 5
REMARK VINA RESULT:      -8.2      8.350     13.695
REMARK  Name = C:\Users\Docking\Desktop\test protocol\1iep_ligandH.pdb
REMARK  8 active torsions:
REMARK  status: ('A' for Active; 'I' for Inactive)
REMARK    1  A    between atoms: _5  and  _11
REMARK    2  A    between atoms: _19  and  _21
REMARK    3  A    between atoms: _22  and  _66
REMARK    4  A    between atoms: _27  and  _30
REMARK    5  A    between atoms: _32  and  _33
REMARK    6  A    between atoms: _38  and  _43
REMARK    7  A    between atoms: _43  and  _46
REMARK    8  A    between atoms: _53  and  _55
REMARK                            x       y       z     vdW  Elec       q    Type
REMARK                         _______ _______ _______ _____ _____    ______ ____
ROOT
ATOM     10  C   UNL     1      26.999  -7.286 -23.018  0.00  0.00    +0.038 A 
ATOM     11  C   UNL     1      27.022  -8.686 -23.247  0.00  0.00    +0.047 A 
ATOM     12  C   UNL     1      27.120  -9.227 -24.594  0.00  0.00    +0.035 A 
ATOM     32  C   UNL     1      27.197  -8.313 -25.685  0.00  0.00    +0.024 A 
ATOM     33  C   UNL     1      27.174  -6.888 -25.471  0.00  0.00    +0.007 A 
ATOM     34  C   UNL     1      27.074  -6.348 -24.145  0.00  0.00    -0.029 A 
ATOM     35  C   UNL     1      27.047  -4.811 -23.975  0.00  0.00    +0.045 C 
ENDROOT
BRANCH  10   9
ATOM      4  C   UNL     1      24.814  -7.084 -18.749  0.00  0.00    +0.077 A 
ATOM      5  C   UNL     1      23.761  -7.957 -19.181  0.00  0.00    +0.048 A 
ATOM      6  C   UNL     1      23.814  -8.430 -20.511  0.00  0.00    +0.116 A 
ATOM      7  N   UNL     1      24.849  -8.053 -21.339  0.00  0.00    -0.223 NA
ATOM      8  C   UNL     1      25.848  -7.208 -20.892  0.00  0.00    +0.220 A 
ATOM      9  N   UNL     1      26.903  -6.822 -21.705  0.00  0.00    -0.283 N 
ATOM     36  H   UNL     1      27.616  -6.192 -21.340  0.00  0.00    +0.155 HD
ATOM     37  N   UNL     1      25.819  -6.741 -19.626  0.00  0.00    -0.214 NA
BRANCH   4   3
ATOM      1  C   UNL     1      25.482  -6.639 -14.921  0.00  0.00    +0.020 A 
ATOM      2  C   UNL     1      25.421  -7.246 -16.231  0.00  0.00    +0.013 A 
ATOM      3  C   UNL     1      24.899  -6.504 -17.372  0.00  0.00    +0.019 A 
ATOM     38  C   UNL     1      24.445  -5.139 -17.152  0.00  0.00    +0.120 A 
ATOM     39  N   UNL     1      24.514  -4.582 -15.879  0.00  0.00    -0.263 NA
ATOM     40  C   UNL     1      25.012  -5.287 -14.773  0.00  0.00    +0.111 A 
ENDBRANCH   4   3
ENDBRANCH  10   9
BRANCH  12  13
ATOM     13  N   UNL     1      27.140 -10.639 -24.888  0.00  0.00    -0.281 N 
ATOM     14  C   UNL     1      26.247 -11.359 -25.664  0.00  0.00    +0.248 C 
ATOM     30  O   UNL     1      25.169 -10.934 -26.052  0.00  0.00    -0.270 OA
ATOM     31  H   UNL     1      27.905 -11.171 -24.473  0.00  0.00    +0.155 HD
BRANCH  14  15
ATOM     15  C   UNL     1      26.596 -12.759 -26.054  0.00  0.00    +0.037 A 
ATOM     16  C   UNL     1      27.803 -13.412 -25.541  0.00  0.00    +0.013 A 
ATOM     17  C   UNL     1      28.126 -14.758 -25.947  0.00  0.00    +0.005 A 
ATOM     18  C   UNL     1      27.237 -15.459 -26.871  0.00  0.00    -0.033 A 
ATOM     28  C   UNL     1      26.044 -14.789 -27.360  0.00  0.00    +0.005 A 
ATOM     29  C   UNL     1      25.725 -13.471 -26.965  0.00  0.00    +0.013 A 
BRANCH  18  19
ATOM     19  C   UNL     1      27.514 -16.888 -27.374  0.00  0.00    +0.119 C 
BRANCH  19  20
ATOM     20  N   UNL     1      27.377 -18.000 -26.385  0.00  0.00    -0.302 NA
ATOM     21  C   UNL     1      28.397 -19.115 -26.631  0.00  0.00    +0.066 C 
ATOM     22  C   UNL     1      28.255 -20.259 -25.574  0.00  0.00    -0.064 C 
ATOM     23  N   UNL     1      26.829 -20.810 -25.612  0.00  0.00    +0.379 N 
ATOM     24  C   UNL     1      26.708 -21.925 -24.661  0.00  0.00    -0.096 C 
ATOM     25  H   UNL     1      26.651 -21.218 -26.635  0.00  0.00    -0.082 HD
ATOM     26  C   UNL     1      25.808 -19.707 -25.372  0.00  0.00    -0.064 C 
ATOM     27  C   UNL     1      25.977 -18.562 -26.409  0.00  0.00    +0.066 C 
ENDBRANCH  19  20
ENDBRANCH  18  19
ENDBRANCH  14  15
ENDBRANCH  12  13
TORSDOF 6
ENDMDL
