MODEL 1
REMARK VINA RESULT:      -7.5      0.000      0.000
REMARK  Name = C:\Users\Docking\Desktop\test protocol\1iep_ligandH.pdb
REMARK  8 active torsions:
REMARK  status: ('A' for Active; 'I' for Inactive)
REMARK    1  A    between atoms: _5  and  _11
REMARK    2  A    between atoms: _19  and  _21
REMARK    3  A    between atoms: _22  and  _66
REMARK    4  A    between atoms: _27  and  _30
REMARK    5  A    between atoms: _32  and  _33
REMARK    6  A    between atoms: _38  and  _43
REMARK    7  A    between atoms: _43  and  _46
REMARK    8  A    between atoms: _53  and  _55
REMARK                            x       y       z     vdW  Elec       q    Type
REMARK                         _______ _______ _______ _____ _____    ______ ____
ROOT
ATOM     10  C   UNL     1      19.732   7.308   6.848  0.00  0.00    +0.038 A 
ATOM     11  C   UNL     1      20.255   8.295   7.722  0.00  0.00    +0.047 A 
ATOM     12  C   UNL     1      21.498   8.987   7.418  0.00  0.00    +0.035 A 
ATOM     32  C   UNL     1      22.181   8.650   6.213  0.00  0.00    +0.024 A 
ATOM     33  C   UNL     1      21.664   7.648   5.314  0.00  0.00    +0.007 A 
ATOM     34  C   UNL     1      20.439   6.961   5.610  0.00  0.00    -0.029 A 
ATOM     35  C   UNL     1      19.935   5.892   4.614  0.00  0.00    +0.045 C 
ENDROOT
BRANCH  10   9
ATOM      4  C   UNL     1      17.241   3.946   9.200  0.00  0.00    +0.077 A 
ATOM      5  C   UNL     1      18.429   3.384   9.776  0.00  0.00    +0.048 A 
ATOM      6  C   UNL     1      19.662   3.986   9.436  0.00  0.00    +0.116 A 
ATOM      7  N   UNL     1      19.692   5.068   8.583  0.00  0.00    -0.223 NA
ATOM      8  C   UNL     1      18.528   5.584   8.044  0.00  0.00    +0.220 A 
ATOM      9  N   UNL     1      18.534   6.676   7.190  0.00  0.00    -0.283 N 
ATOM     36  H   UNL     1      17.654   7.022   6.807  0.00  0.00    +0.155 HD
ATOM     37  N   UNL     1      17.338   5.026   8.351  0.00  0.00    -0.214 NA
BRANCH   4   3
ATOM      1  C   UNL     1      13.881   1.964   8.914  0.00  0.00    +0.020 A 
ATOM      2  C   UNL     1      15.212   2.436   8.613  0.00  0.00    +0.013 A 
ATOM      3  C   UNL     1      15.864   3.423   9.466  0.00  0.00    +0.019 A 
ATOM     38  C   UNL     1      15.134   3.915  10.625  0.00  0.00    +0.120 A 
ATOM     39  N   UNL     1      13.852   3.443  10.889  0.00  0.00    -0.263 NA
ATOM     40  C   UNL     1      13.215   2.495  10.075  0.00  0.00    +0.111 A 
ENDBRANCH   4   3
ENDBRANCH  10   9
BRANCH  12  13
ATOM     13  N   UNL     1      22.082   9.992   8.271  0.00  0.00    -0.281 N 
ATOM     14  C   UNL     1      22.721  11.162   7.894  0.00  0.00    +0.248 C 
ATOM     30  O   UNL     1      23.077  11.418   6.754  0.00  0.00    -0.270 OA
ATOM     31  H   UNL     1      22.017   9.820   9.274  0.00  0.00    +0.155 HD
BRANCH  14  15
ATOM     15  C   UNL     1      23.020  12.189   8.938  0.00  0.00    +0.037 A 
ATOM     16  C   UNL     1      22.004  13.153   9.369  0.00  0.00    +0.013 A 
ATOM     17  C   UNL     1      22.324  14.144  10.365  0.00  0.00    +0.005 A 
ATOM     18  C   UNL     1      23.668  14.176  10.938  0.00  0.00    -0.033 A 
ATOM     28  C   UNL     1      24.655  13.205  10.495  0.00  0.00    +0.005 A 
ATOM     29  C   UNL     1      24.345  12.233   9.519  0.00  0.00    +0.013 A 
BRANCH  18  19
ATOM     19  C   UNL     1      24.104  15.213  11.990  0.00  0.00    +0.119 C 
BRANCH  19  20
ATOM     20  N   UNL     1      24.724  16.476  11.490  0.00  0.00    -0.302 NA
ATOM     21  C   UNL     1      24.347  16.764  10.034  0.00  0.00    +0.066 C 
ATOM     22  C   UNL     1      24.987  18.100   9.535  0.00  0.00    -0.064 C 
ATOM     23  N   UNL     1      26.506  18.027   9.696  0.00  0.00    +0.379 N 
ATOM     24  C   UNL     1      27.115  19.258   9.173  0.00  0.00    -0.096 C 
ATOM     25  H   UNL     1      26.872  17.178   9.073  0.00  0.00    -0.082 HD
ATOM     26  C   UNL     1      26.890  17.738  11.141  0.00  0.00    -0.064 C 
ATOM     27  C   UNL     1      26.225  16.423  11.637  0.00  0.00    +0.066 C 
ENDBRANCH  19  20
ENDBRANCH  18  19
ENDBRANCH  14  15
ENDBRANCH  12  13
TORSDOF 6
ENDMDL
MODEL 2
REMARK VINA RESULT:      -7.5     16.423     18.728
REMARK  Name = C:\Users\Docking\Desktop\test protocol\1iep_ligandH.pdb
REMARK  8 active torsions:
REMARK  status: ('A' for Active; 'I' for Inactive)
REMARK    1  A    between atoms: _5  and  _11
REMARK    2  A    between atoms: _19  and  _21
REMARK    3  A    between atoms: _22  and  _66
REMARK    4  A    between atoms: _27  and  _30
REMARK    5  A    between atoms: _32  and  _33
REMARK    6  A    between atoms: _38  and  _43
REMARK    7  A    between atoms: _43  and  _46
REMARK    8  A    between atoms: _53  and  _55
REMARK                            x       y       z     vdW  Elec       q    Type
REMARK                         _______ _______ _______ _____ _____    ______ ____
ROOT
ATOM     10  C   UNL     1       6.791  16.947  11.134  0.00  0.00    +0.038 A 
ATOM     11  C   UNL     1       6.999  16.821   9.736  0.00  0.00    +0.047 A 
ATOM     12  C   UNL     1       8.139  16.088   9.208  0.00  0.00    +0.035 A 
ATOM     32  C   UNL     1       9.047  15.493  10.133  0.00  0.00    +0.024 A 
ATOM     33  C   UNL     1       8.851  15.613  11.556  0.00  0.00    +0.007 A 
ATOM     34  C   UNL     1       7.730  16.337  12.083  0.00  0.00    -0.029 A 
ATOM     35  C   UNL     1       7.574  16.438  13.618  0.00  0.00    +0.045 C 
ENDROOT
BRANCH  10   9
ATOM      4  C   UNL     1       4.493  21.057  12.061  0.00  0.00    +0.077 A 
ATOM      5  C   UNL     1       5.612  21.848  11.634  0.00  0.00    +0.048 A 
ATOM      6  C   UNL     1       6.762  21.158  11.190  0.00  0.00    +0.116 A 
ATOM      7  N   UNL     1       6.781  19.780  11.177  0.00  0.00    -0.223 NA
ATOM      8  C   UNL     1       5.685  19.048  11.597  0.00  0.00    +0.220 A 
ATOM      9  N   UNL     1       5.679  17.662  11.585  0.00  0.00    -0.283 N 
ATOM     36  H   UNL     1       4.854  17.158  11.910  0.00  0.00    +0.155 HD
ATOM     37  N   UNL     1       4.575  19.683  12.027  0.00  0.00    -0.214 NA
BRANCH   4   3
ATOM      1  C   UNL     1       1.092  22.982  12.238  0.00  0.00    +0.020 A 
ATOM      2  C   UNL     1       2.325  22.443  11.713  0.00  0.00    +0.013 A 
ATOM      3  C   UNL     1       3.205  21.640  12.554  0.00  0.00    +0.019 A 
ATOM     38  C   UNL     1       2.804  21.400  13.932  0.00  0.00    +0.120 A 
ATOM     39  N   UNL     1       1.612  21.933  14.411  0.00  0.00    -0.263 NA
ATOM     40  C   UNL     1       0.758  22.708  13.611  0.00  0.00    +0.111 A 
ENDBRANCH   4   3
ENDBRANCH  10   9
BRANCH  12  13
ATOM     13  N   UNL     1       8.406  15.933   7.800  0.00  0.00    -0.281 N 
ATOM     14  C   UNL     1       7.705  15.172   6.879  0.00  0.00    +0.248 C 
ATOM     30  O   UNL     1       6.864  14.335   7.171  0.00  0.00    -0.270 OA
ATOM     31  H   UNL     1       9.210  16.447   7.438  0.00  0.00    +0.155 HD
BRANCH  14  15
ATOM     15  C   UNL     1       7.990  15.357   5.423  0.00  0.00    +0.037 A 
ATOM     16  C   UNL     1       6.984  15.042   4.406  0.00  0.00    +0.013 A 
ATOM     17  C   UNL     1       7.291  15.213   3.008  0.00  0.00    +0.005 A 
ATOM     18  C   UNL     1       8.611  15.705   2.619  0.00  0.00    -0.033 A 
ATOM     28  C   UNL     1       9.588  16.015   3.649  0.00  0.00    +0.005 A 
ATOM     29  C   UNL     1       9.291  15.847   5.021  0.00  0.00    +0.013 A 
BRANCH  18  19
ATOM     19  C   UNL     1       9.032  15.898   1.150  0.00  0.00    +0.119 C 
BRANCH  19  20
ATOM     20  N   UNL     1      10.371  15.373   0.749  0.00  0.00    -0.302 NA
ATOM     21  C   UNL     1      11.392  16.496   0.547  0.00  0.00    +0.066 C 
ATOM     22  C   UNL     1      12.793  15.928   0.149  0.00  0.00    -0.064 C 
ATOM     23  N   UNL     1      12.656  15.086  -1.121  0.00  0.00    +0.379 N 
ATOM     24  C   UNL     1      13.981  14.597  -1.531  0.00  0.00    -0.096 C 
ATOM     25  H   UNL     1      12.277  15.753  -1.929  0.00  0.00    -0.082 HD
ATOM     26  C   UNL     1      11.641  13.968  -0.930  0.00  0.00    -0.064 C 
ATOM     27  C   UNL     1      10.260  14.542  -0.506  0.00  0.00    +0.066 C 
ENDBRANCH  19  20
ENDBRANCH  18  19
ENDBRANCH  14  15
ENDBRANCH  12  13
TORSDOF 6
ENDMDL
MODEL 3
REMARK VINA RESULT:      -7.3     18.487     25.418
REMARK  Name = C:\Users\Docking\Desktop\test protocol\1iep_ligandH.pdb
REMARK  8 active torsions:
REMARK  status: ('A' for Active; 'I' for Inactive)
REMARK    1  A    between atoms: _5  and  _11
REMARK    2  A    between atoms: _19  and  _21
REMARK    3  A    between atoms: _22  and  _66
REMARK    4  A    between atoms: _27  and  _30
REMARK    5  A    between atoms: _32  and  _33
REMARK    6  A    between atoms: _38  and  _43
REMARK    7  A    between atoms: _43  and  _46
REMARK    8  A    between atoms: _53  and  _55
REMARK                            x       y       z     vdW  Elec       q    Type
REMARK                         _______ _______ _______ _____ _____    ______ ____
ROOT
ATOM     10  C   UNL     1      22.352  26.115  27.202  0.00  0.00    +0.038 A 
ATOM     11  C   UNL     1      22.126  24.727  27.012  0.00  0.00    +0.047 A 
ATOM     12  C   UNL     1      23.140  23.875  26.411  0.00  0.00    +0.035 A 
ATOM     32  C   UNL     1      24.374  24.468  26.017  0.00  0.00    +0.024 A 
ATOM     33  C   UNL     1      24.621  25.877  26.201  0.00  0.00    +0.007 A 
ATOM     34  C   UNL     1      23.624  26.723  26.791  0.00  0.00    -0.029 A 
ATOM     35  C   UNL     1      23.940  28.228  26.959  0.00  0.00    +0.045 C 
ENDROOT
BRANCH  10   9
ATOM      4  C   UNL     1      20.355  28.329  30.963  0.00  0.00    +0.077 A 
ATOM      5  C   UNL     1      21.394  27.889  31.849  0.00  0.00    +0.048 A 
ATOM      6  C   UNL     1      22.420  27.088  31.299  0.00  0.00    +0.116 A 
ATOM      7  N   UNL     1      22.399  26.759  29.961  0.00  0.00    -0.223 NA
ATOM      8  C   UNL     1      21.381  27.199  29.134  0.00  0.00    +0.220 A 
ATOM      9  N   UNL     1      21.344  26.886  27.784  0.00  0.00    -0.283 N 
ATOM     36  H   UNL     1      20.572  27.224  27.210  0.00  0.00    +0.155 HD
ATOM     37  N   UNL     1      20.389  27.963  29.636  0.00  0.00    -0.214 NA
BRANCH   4   3
ATOM      1  C   UNL     1      17.270  29.725  32.921  0.00  0.00    +0.020 A 
ATOM      2  C   UNL     1      18.370  28.866  32.547  0.00  0.00    +0.013 A 
ATOM      3  C   UNL     1      19.204  29.183  31.394  0.00  0.00    +0.019 A 
ATOM     38  C   UNL     1      18.896  30.387  30.636  0.00  0.00    +0.120 A 
ATOM     39  N   UNL     1      17.830  31.194  31.020  0.00  0.00    -0.263 NA
ATOM     40  C   UNL     1      17.020  30.898  32.126  0.00  0.00    +0.111 A 
ENDBRANCH   4   3
ENDBRANCH  10   9
BRANCH  12  13
ATOM     13  N   UNL     1      22.964  22.462  26.186  0.00  0.00    -0.281 N 
ATOM     14  C   UNL     1      22.837  21.801  24.975  0.00  0.00    +0.248 C 
ATOM     30  O   UNL     1      22.642  22.355  23.903  0.00  0.00    -0.270 OA
ATOM     31  H   UNL     1      22.927  21.877  27.021  0.00  0.00    +0.155 HD
BRANCH  14  15
ATOM     15  C   UNL     1      22.927  20.309  24.953  0.00  0.00    +0.037 A 
ATOM     16  C   UNL     1      22.823  19.560  23.699  0.00  0.00    +0.013 A 
ATOM     17  C   UNL     1      22.895  18.120  23.708  0.00  0.00    +0.005 A 
ATOM     18  C   UNL     1      23.074  17.420  24.977  0.00  0.00    -0.033 A 
ATOM     28  C   UNL     1      23.179  18.189  26.207  0.00  0.00    +0.005 A 
ATOM     29  C   UNL     1      23.108  19.600  26.202  0.00  0.00    +0.013 A 
BRANCH  18  19
ATOM     19  C   UNL     1      23.141  15.885  25.084  0.00  0.00    +0.119 C 
BRANCH  19  20
ATOM     20  N   UNL     1      24.386  15.220  24.599  0.00  0.00    -0.302 NA
ATOM     21  C   UNL     1      25.579  16.180  24.575  0.00  0.00    +0.066 C 
ATOM     22  C   UNL     1      26.879  15.461  24.086  0.00  0.00    -0.064 C 
ATOM     23  N   UNL     1      26.637  14.864  22.699  0.00  0.00    +0.379 N 
ATOM     24  C   UNL     1      27.874  14.238  22.212  0.00  0.00    -0.096 C 
ATOM     25  H   UNL     1      26.388  15.704  22.009  0.00  0.00    -0.082 HD
ATOM     26  C   UNL     1      25.450  13.911  22.712  0.00  0.00    -0.064 C 
ATOM     27  C   UNL     1      24.171  14.627  23.228  0.00  0.00    +0.066 C 
ENDBRANCH  19  20
ENDBRANCH  18  19
ENDBRANCH  14  15
ENDBRANCH  12  13
TORSDOF 6
ENDMDL
MODEL 4
REMARK VINA RESULT:      -7.2      3.030     13.141
REMARK  Name = C:\Users\Docking\Desktop\test protocol\1iep_ligandH.pdb
REMARK  8 active torsions:
REMARK  status: ('A' for Active; 'I' for Inactive)
REMARK    1  A    between atoms: _5  and  _11
REMARK    2  A    between atoms: _19  and  _21
REMARK    3  A    between atoms: _22  and  _66
REMARK    4  A    between atoms: _27  and  _30
REMARK    5  A    between atoms: _32  and  _33
REMARK    6  A    between atoms: _38  and  _43
REMARK    7  A    between atoms: _43  and  _46
REMARK    8  A    between atoms: _53  and  _55
REMARK                            x       y       z     vdW  Elec       q    Type
REMARK                         _______ _______ _______ _____ _____    ______ ____
ROOT
ATOM     10  C   UNL     1      24.316  15.046  11.088  0.00  0.00    +0.038 A 
ATOM     11  C   UNL     1      23.875  13.852  10.463  0.00  0.00    +0.047 A 
ATOM     12  C   UNL     1      23.033  13.890   9.277  0.00  0.00    +0.035 A 
ATOM     32  C   UNL     1      22.662  15.162   8.753  0.00  0.00    +0.024 A 
ATOM     33  C   UNL     1      23.100  16.386   9.376  0.00  0.00    +0.007 A 
ATOM     34  C   UNL     1      23.928  16.355  10.548  0.00  0.00    -0.029 A 
ATOM     35  C   UNL     1      24.363  17.698  11.178  0.00  0.00    +0.045 C 
ENDROOT
BRANCH  10   9
ATOM      4  C   UNL     1      28.591  14.562  13.216  0.00  0.00    +0.077 A 
ATOM      5  C   UNL     1      29.272  14.464  11.957  0.00  0.00    +0.048 A 
ATOM      6  C   UNL     1      28.485  14.535  10.786  0.00  0.00    +0.116 A 
ATOM      7  N   UNL     1      27.119  14.694  10.878  0.00  0.00    -0.223 NA
ATOM      8  C   UNL     1      26.493  14.784  12.108  0.00  0.00    +0.220 A 
ATOM      9  N   UNL     1      25.122  14.951  12.224  0.00  0.00    -0.283 N 
ATOM     36  H   UNL     1      24.698  15.006  13.150  0.00  0.00    +0.155 HD
ATOM     37  N   UNL     1      27.223  14.717  13.241  0.00  0.00    -0.214 NA
BRANCH   4   3
ATOM      1  C   UNL     1      31.255  14.949  16.054  0.00  0.00    +0.020 A 
ATOM      2  C   UNL     1      30.630  15.026  14.754  0.00  0.00    +0.013 A 
ATOM      3  C   UNL     1      29.284  14.508  14.542  0.00  0.00    +0.019 A 
ATOM     38  C   UNL     1      28.592  13.914  15.675  0.00  0.00    +0.120 A 
ATOM     39  N   UNL     1      29.220  13.852  16.916  0.00  0.00    -0.263 NA
ATOM     40  C   UNL     1      30.515  14.346  17.131  0.00  0.00    +0.111 A 
ENDBRANCH   4   3
ENDBRANCH  10   9
BRANCH  12  13
ATOM     13  N   UNL     1      22.548  12.710   8.604  0.00  0.00    -0.281 N 
ATOM     14  C   UNL     1      23.273  11.802   7.849  0.00  0.00    +0.248 C 
ATOM     30  O   UNL     1      24.416  11.985   7.459  0.00  0.00    -0.270 OA
ATOM     31  H   UNL     1      21.550  12.522   8.695  0.00  0.00    +0.155 HD
BRANCH  14  15
ATOM     15  C   UNL     1      22.628  10.511   7.459  0.00  0.00    +0.037 A 
ATOM     16  C   UNL     1      23.008   9.814   6.227  0.00  0.00    +0.013 A 
ATOM     17  C   UNL     1      22.359   8.579   5.866  0.00  0.00    +0.005 A 
ATOM     18  C   UNL     1      21.323   8.032   6.739  0.00  0.00    -0.033 A 
ATOM     28  C   UNL     1      20.969   8.742   7.957  0.00  0.00    +0.005 A 
ATOM     29  C   UNL     1      21.603   9.953   8.314  0.00  0.00    +0.013 A 
BRANCH  18  19
ATOM     19  C   UNL     1      20.562   6.731   6.422  0.00  0.00    +0.119 C 
BRANCH  19  20
ATOM     20  N   UNL     1      19.423   6.369   7.316  0.00  0.00    -0.302 NA
ATOM     21  C   UNL     1      19.782   5.227   8.271  0.00  0.00    +0.066 C 
ATOM     22  C   UNL     1      18.586   4.877   9.215  0.00  0.00    -0.064 C 
ATOM     23  N   UNL     1      17.364   4.513   8.371  0.00  0.00    +0.379 N 
ATOM     24  C   UNL     1      16.254   4.127   9.255  0.00  0.00    -0.096 C 
ATOM     25  H   UNL     1      17.631   3.623   7.755  0.00  0.00    -0.082 HD
ATOM     26  C   UNL     1      17.001   5.642   7.417  0.00  0.00    -0.064 C 
ATOM     27  C   UNL     1      18.206   6.002   6.503  0.00  0.00    +0.066 C 
ENDBRANCH  19  20
ENDBRANCH  18  19
ENDBRANCH  14  15
ENDBRANCH  12  13
TORSDOF 6
ENDMDL
MODEL 5
REMARK VINA RESULT:      -7.2     16.745     21.800
REMARK  Name = C:\Users\Docking\Desktop\test protocol\1iep_ligandH.pdb
REMARK  8 active torsions:
REMARK  status: ('A' for Active; 'I' for Inactive)
REMARK    1  A    between atoms: _5  and  _11
REMARK    2  A    between atoms: _19  and  _21
REMARK    3  A    between atoms: _22  and  _66
REMARK    4  A    between atoms: _27  and  _30
REMARK    5  A    between atoms: _32  and  _33
REMARK    6  A    between atoms: _38  and  _43
REMARK    7  A    between atoms: _43  and  _46
REMARK    8  A    between atoms: _53  and  _55
REMARK                            x       y       z     vdW  Elec       q    Type
REMARK                         _______ _______ _______ _____ _____    ______ ____
ROOT
ATOM     10  C   UNL     1      23.833  20.271  23.930  0.00  0.00    +0.038 A 
ATOM     11  C   UNL     1      24.151  18.889  23.925  0.00  0.00    +0.047 A 
ATOM     12  C   UNL     1      23.695  18.007  24.988  0.00  0.00    +0.035 A 
ATOM     32  C   UNL     1      22.915  18.567  26.041  0.00  0.00    +0.024 A 
ATOM     33  C   UNL     1      22.583  19.970  26.063  0.00  0.00    +0.007 A 
ATOM     34  C   UNL     1      23.032  20.845  25.018  0.00  0.00    -0.029 A 
ATOM     35  C   UNL     1      22.652  22.342  25.097  0.00  0.00    +0.045 C 
ENDROOT
BRANCH  10   9
ATOM      4  C   UNL     1      27.256  22.855  21.774  0.00  0.00    +0.077 A 
ATOM      5  C   UNL     1      28.190  22.612  22.836  0.00  0.00    +0.048 A 
ATOM      6  C   UNL     1      27.748  21.823  23.921  0.00  0.00    +0.116 A 
ATOM      7  N   UNL     1      26.466  21.320  23.934  0.00  0.00    -0.223 NA
ATOM      8  C   UNL     1      25.589  21.574  22.895  0.00  0.00    +0.220 A 
ATOM      9  N   UNL     1      24.297  21.071  22.884  0.00  0.00    -0.283 N 
ATOM     36  H   UNL     1      23.679  21.288  22.102  0.00  0.00    +0.155 HD
ATOM     37  N   UNL     1      25.986  22.326  21.848  0.00  0.00    -0.214 NA
BRANCH   4   3
ATOM      1  C   UNL     1      27.233  24.300  18.140  0.00  0.00    +0.020 A 
ATOM      2  C   UNL     1      26.887  23.490  19.285  0.00  0.00    +0.013 A 
ATOM      3  C   UNL     1      27.575  23.667  20.558  0.00  0.00    +0.019 A 
ATOM     38  C   UNL     1      28.615  24.680  20.639  0.00  0.00    +0.120 A 
ATOM     39  N   UNL     1      28.928  25.445  19.520  0.00  0.00    -0.263 NA
ATOM     40  C   UNL     1      28.274  25.283  18.289  0.00  0.00    +0.111 A 
ENDBRANCH   4   3
ENDBRANCH  10   9
BRANCH  12  13
ATOM     13  N   UNL     1      23.994  16.598  25.040  0.00  0.00    -0.281 N 
ATOM     14  C   UNL     1      25.010  15.967  25.739  0.00  0.00    +0.248 C 
ATOM     30  O   UNL     1      25.953  16.546  26.259  0.00  0.00    -0.270 OA
ATOM     31  H   UNL     1      23.381  15.990  24.495  0.00  0.00    +0.155 HD
BRANCH  14  15
ATOM     15  C   UNL     1      24.984  14.479  25.867  0.00  0.00    +0.037 A 
ATOM     16  C   UNL     1      25.163  13.612  24.699  0.00  0.00    +0.013 A 
ATOM     17  C   UNL     1      25.115  12.179  24.848  0.00  0.00    +0.005 A 
ATOM     18  C   UNL     1      24.889  11.603  26.171  0.00  0.00    -0.033 A 
ATOM     28  C   UNL     1      24.720  12.486  27.314  0.00  0.00    +0.005 A 
ATOM     29  C   UNL     1      24.765  13.891  27.172  0.00  0.00    +0.013 A 
BRANCH  18  19
ATOM     19  C   UNL     1      24.803  10.086  26.420  0.00  0.00    +0.119 C 
BRANCH  19  20
ATOM     20  N   UNL     1      23.454   9.452  26.316  0.00  0.00    -0.302 NA
ATOM     21  C   UNL     1      22.613   9.682  27.575  0.00  0.00    +0.066 C 
ATOM     22  C   UNL     1      21.198   9.032  27.441  0.00  0.00    -0.064 C 
ATOM     23  N   UNL     1      21.352   7.536  27.158  0.00  0.00    +0.379 N 
ATOM     24  C   UNL     1      20.023   6.911  27.089  0.00  0.00    -0.096 C 
ATOM     25  H   UNL     1      21.894   7.084  28.021  0.00  0.00    -0.082 HD
ATOM     26  C   UNL     1      22.189   7.298  25.910  0.00  0.00    -0.064 C 
ATOM     27  C   UNL     1      23.583   7.974  26.042  0.00  0.00    +0.066 C 
ENDBRANCH  19  20
ENDBRANCH  18  19
ENDBRANCH  14  15
ENDBRANCH  12  13
TORSDOF 6
ENDMDL
