MODEL 1
REMARK VINA RESULT:      -7.7      0.000      0.000
REMARK  Name = C:\Users\Docking\Desktop\test protocol\1iep_ligandH.pdb
REMARK  8 active torsions:
REMARK  status: ('A' for Active; 'I' for Inactive)
REMARK    1  A    between atoms: _5  and  _11
REMARK    2  A    between atoms: _19  and  _21
REMARK    3  A    between atoms: _22  and  _66
REMARK    4  A    between atoms: _27  and  _30
REMARK    5  A    between atoms: _32  and  _33
REMARK    6  A    between atoms: _38  and  _43
REMARK    7  A    between atoms: _43  and  _46
REMARK    8  A    between atoms: _53  and  _55
REMARK                            x       y       z     vdW  Elec       q    Type
REMARK                         _______ _______ _______ _____ _____    ______ ____
ROOT
ATOM     10  C   UNL     1       8.455  52.819  22.959  0.00  0.00    +0.038 A 
ATOM     11  C   UNL     1       9.336  52.353  23.968  0.00  0.00    +0.047 A 
ATOM     12  C   UNL     1       9.255  52.857  25.330  0.00  0.00    +0.035 A 
ATOM     32  C   UNL     1       8.261  53.834  25.630  0.00  0.00    +0.024 A 
ATOM     33  C   UNL     1       7.358  54.319  24.617  0.00  0.00    +0.007 A 
ATOM     34  C   UNL     1       7.435  53.827  23.271  0.00  0.00    -0.029 A 
ATOM     35  C   UNL     1       6.445  54.388  22.224  0.00  0.00    +0.045 C 
ENDROOT
BRANCH  10   9
ATOM      4  C   UNL     1      10.285  52.898  18.523  0.00  0.00    +0.077 A 
ATOM      5  C   UNL     1      11.040  54.088  18.791  0.00  0.00    +0.048 A 
ATOM      6  C   UNL     1      10.924  54.652  20.081  0.00  0.00    +0.116 A 
ATOM      7  N   UNL     1      10.111  54.062  21.025  0.00  0.00    -0.223 NA
ATOM      8  C   UNL     1       9.395  52.915  20.732  0.00  0.00    +0.220 A 
ATOM      9  N   UNL     1       8.578  52.300  21.668  0.00  0.00    -0.283 N 
ATOM     36  H   UNL     1       8.061  51.460  21.411  0.00  0.00    +0.155 HD
ATOM     37  N   UNL     1       9.488  52.358  19.507  0.00  0.00    -0.214 NA
BRANCH   4   3
ATOM      1  C   UNL     1      11.300  51.697  14.940  0.00  0.00    +0.020 A 
ATOM      2  C   UNL     1      11.325  52.416  16.194  0.00  0.00    +0.013 A 
ATOM      3  C   UNL     1      10.305  52.181  17.208  0.00  0.00    +0.019 A 
ATOM     38  C   UNL     1       9.265  51.205  16.921  0.00  0.00    +0.120 A 
ATOM     39  N   UNL     1       9.265  50.529  15.705  0.00  0.00    -0.263 NA
ATOM     40  C   UNL     1      10.241  50.748  14.720  0.00  0.00    +0.111 A 
ENDBRANCH   4   3
ENDBRANCH  10   9
BRANCH  12  13
ATOM     13  N   UNL     1      10.128  52.427  26.394  0.00  0.00    -0.281 N 
ATOM     14  C   UNL     1       9.887  51.459  27.355  0.00  0.00    +0.248 C 
ATOM     30  O   UNL     1       8.793  50.962  27.575  0.00  0.00    -0.270 OA
ATOM     31  H   UNL     1      11.034  52.894  26.445  0.00  0.00    +0.155 HD
BRANCH  14  15
ATOM     15  C   UNL     1      11.023  50.984  28.202  0.00  0.00    +0.037 A 
ATOM     16  C   UNL     1      11.385  49.566  28.263  0.00  0.00    +0.013 A 
ATOM     17  C   UNL     1      12.474  49.132  29.101  0.00  0.00    +0.005 A 
ATOM     18  C   UNL     1      13.211  50.120  29.886  0.00  0.00    -0.033 A 
ATOM     28  C   UNL     1      12.834  51.522  29.803  0.00  0.00    +0.005 A 
ATOM     29  C   UNL     1      11.766  51.950  28.983  0.00  0.00    +0.013 A 
BRANCH  18  19
ATOM     19  C   UNL     1      14.373  49.746  30.824  0.00  0.00    +0.119 C 
BRANCH  19  20
ATOM     20  N   UNL     1      15.756  50.075  30.366  0.00  0.00    -0.302 NA
ATOM     21  C   UNL     1      15.910  49.922  28.850  0.00  0.00    +0.066 C 
ATOM     22  C   UNL     1      17.356  50.292  28.384  0.00  0.00    -0.064 C 
ATOM     23  N   UNL     1      18.367  49.415  29.124  0.00  0.00    +0.379 N 
ATOM     24  C   UNL     1      19.724  49.721  28.646  0.00  0.00    -0.096 C 
ATOM     25  H   UNL     1      18.148  48.353  28.863  0.00  0.00    -0.082 HD
ATOM     26  C   UNL     1      18.219  49.559  30.632  0.00  0.00    -0.064 C 
ATOM     27  C   UNL     1      16.771  49.217  31.080  0.00  0.00    +0.066 C 
ENDBRANCH  19  20
ENDBRANCH  18  19
ENDBRANCH  14  15
ENDBRANCH  12  13
TORSDOF 6
ENDMDL
MODEL 2
REMARK VINA RESULT:      -7.4      6.811     12.308
REMARK  Name = C:\Users\Docking\Desktop\test protocol\1iep_ligandH.pdb
REMARK  8 active torsions:
REMARK  status: ('A' for Active; 'I' for Inactive)
REMARK    1  A    between atoms: _5  and  _11
REMARK    2  A    between atoms: _19  and  _21
REMARK    3  A    between atoms: _22  and  _66
REMARK    4  A    between atoms: _27  and  _30
REMARK    5  A    between atoms: _32  and  _33
REMARK    6  A    between atoms: _38  and  _43
REMARK    7  A    between atoms: _43  and  _46
REMARK    8  A    between atoms: _53  and  _55
REMARK                            x       y       z     vdW  Elec       q    Type
REMARK                         _______ _______ _______ _____ _____    ______ ____
ROOT
ATOM     10  C   UNL     1      10.820  49.135  28.351  0.00  0.00    +0.038 A 
ATOM     11  C   UNL     1       9.404  49.182  28.282  0.00  0.00    +0.047 A 
ATOM     12  C   UNL     1       8.646  48.118  27.642  0.00  0.00    +0.035 A 
ATOM     32  C   UNL     1       9.363  47.020  27.084  0.00  0.00    +0.024 A 
ATOM     33  C   UNL     1      10.802  46.956  27.144  0.00  0.00    +0.007 A 
ATOM     34  C   UNL     1      11.555  48.004  27.772  0.00  0.00    -0.029 A 
ATOM     35  C   UNL     1      13.097  47.887  27.802  0.00  0.00    +0.045 C 
ENDROOT
BRANCH  10   9
ATOM      4  C   UNL     1      12.180  53.730  28.627  0.00  0.00    +0.077 A 
ATOM      5  C   UNL     1      11.508  54.064  27.405  0.00  0.00    +0.048 A 
ATOM      6  C   UNL     1      10.829  53.023  26.732  0.00  0.00    +0.116 A 
ATOM      7  N   UNL     1      10.830  51.747  27.252  0.00  0.00    -0.223 NA
ATOM      8  C   UNL     1      11.490  51.458  28.432  0.00  0.00    +0.220 A 
ATOM      9  N   UNL     1      11.497  50.183  28.978  0.00  0.00    -0.283 N 
ATOM     36  H   UNL     1      12.002  50.010  29.847  0.00  0.00    +0.155 HD
ATOM     37  N   UNL     1      12.146  52.434  29.093  0.00  0.00    -0.214 NA
BRANCH   4   3
ATOM      1  C   UNL     1      14.988  55.478  30.715  0.00  0.00    +0.020 A 
ATOM      2  C   UNL     1      14.300  54.488  29.919  0.00  0.00    +0.013 A 
ATOM      3  C   UNL     1      12.938  54.721  29.454  0.00  0.00    +0.019 A 
ATOM     38  C   UNL     1      12.296  55.975  29.815  0.00  0.00    +0.120 A 
ATOM     39  N   UNL     1      12.982  56.910  30.585  0.00  0.00    -0.263 NA
ATOM     40  C   UNL     1      14.292  56.696  31.039  0.00  0.00    +0.111 A 
ENDBRANCH   4   3
ENDBRANCH  10   9
BRANCH  12  13
ATOM     13  N   UNL     1       7.208  48.115  27.534  0.00  0.00    -0.281 N 
ATOM     14  C   UNL     1       6.415  48.887  26.701  0.00  0.00    +0.248 C 
ATOM     30  O   UNL     1       6.813  49.855  26.070  0.00  0.00    -0.270 OA
ATOM     31  H   UNL     1       6.716  47.465  28.147  0.00  0.00    +0.155 HD
BRANCH  14  15
ATOM     15  C   UNL     1       4.968  48.543  26.560  0.00  0.00    +0.037 A 
ATOM     16  C   UNL     1       4.147  48.213  27.728  0.00  0.00    +0.013 A 
ATOM     17  C   UNL     1       2.758  47.868  27.562  0.00  0.00    +0.005 A 
ATOM     18  C   UNL     1       2.179  47.852  26.220  0.00  0.00    -0.033 A 
ATOM     28  C   UNL     1       3.015  48.188  25.079  0.00  0.00    +0.005 A 
ATOM     29  C   UNL     1       4.377  48.526  25.238  0.00  0.00    +0.013 A 
BRANCH  18  19
ATOM     19  C   UNL     1       0.711  47.475  25.947  0.00  0.00    +0.119 C 
BRANCH  19  20
ATOM     20  N   UNL     1       0.446  46.112  25.396  0.00  0.00    -0.302 NA
ATOM     21  C   UNL     1      -0.738  45.433  26.089  0.00  0.00    +0.066 C 
ATOM     22  C   UNL     1      -1.015  44.018  25.485  0.00  0.00    -0.064 C 
ATOM     23  N   UNL     1       0.246  43.160  25.603  0.00  0.00    +0.379 N 
ATOM     24  C   UNL     1      -0.029  41.810  25.089  0.00  0.00    -0.096 C 
ATOM     25  H   UNL     1       0.490  43.066  26.687  0.00  0.00    -0.082 HD
ATOM     26  C   UNL     1       1.429  43.830  24.919  0.00  0.00    -0.064 C 
ATOM     27  C   UNL     1       1.677  45.247  25.506  0.00  0.00    +0.066 C 
ENDBRANCH  19  20
ENDBRANCH  18  19
ENDBRANCH  14  15
ENDBRANCH  12  13
TORSDOF 6
ENDMDL
MODEL 3
REMARK VINA RESULT:      -7.4     15.438     18.483
REMARK  Name = C:\Users\Docking\Desktop\test protocol\1iep_ligandH.pdb
REMARK  8 active torsions:
REMARK  status: ('A' for Active; 'I' for Inactive)
REMARK    1  A    between atoms: _5  and  _11
REMARK    2  A    between atoms: _19  and  _21
REMARK    3  A    between atoms: _22  and  _66
REMARK    4  A    between atoms: _27  and  _30
REMARK    5  A    between atoms: _32  and  _33
REMARK    6  A    between atoms: _38  and  _43
REMARK    7  A    between atoms: _43  and  _46
REMARK    8  A    between atoms: _53  and  _55
REMARK                            x       y       z     vdW  Elec       q    Type
REMARK                         _______ _______ _______ _____ _____    ______ ____
ROOT
ATOM     10  C   UNL     1      -1.717  39.056  25.947  0.00  0.00    +0.038 A 
ATOM     11  C   UNL     1      -0.870  40.024  25.350  0.00  0.00    +0.047 A 
ATOM     12  C   UNL     1      -1.411  41.250  24.784  0.00  0.00    +0.035 A 
ATOM     32  C   UNL     1      -2.820  41.459  24.846  0.00  0.00    +0.024 A 
ATOM     33  C   UNL     1      -3.695  40.485  25.448  0.00  0.00    +0.007 A 
ATOM     34  C   UNL     1      -3.168  39.272  26.006  0.00  0.00    -0.029 A 
ATOM     35  C   UNL     1      -4.154  38.260  26.633  0.00  0.00    +0.045 C 
ENDROOT
BRANCH  10   9
ATOM      4  C   UNL     1      -0.628  34.387  25.711  0.00  0.00    +0.077 A 
ATOM      5  C   UNL     1      -1.279  34.239  24.441  0.00  0.00    +0.048 A 
ATOM      6  C   UNL     1      -1.888  35.387  23.886  0.00  0.00    +0.116 A 
ATOM      7  N   UNL     1      -1.843  36.588  24.560  0.00  0.00    -0.223 NA
ATOM      8  C   UNL     1      -1.209  36.696  25.784  0.00  0.00    +0.220 A 
ATOM      9  N   UNL     1      -1.144  37.896  26.475  0.00  0.00    -0.283 N 
ATOM     36  H   UNL     1      -0.674  37.933  27.379  0.00  0.00    +0.155 HD
ATOM     37  N   UNL     1      -0.621  35.615  26.336  0.00  0.00    -0.214 NA
BRANCH   4   3
ATOM      1  C   UNL     1       1.621  32.367  28.193  0.00  0.00    +0.020 A 
ATOM      2  C   UNL     1       0.979  33.483  27.538  0.00  0.00    +0.013 A 
ATOM      3  C   UNL     1       0.063  33.267  26.425  0.00  0.00    +0.019 A 
ATOM     38  C   UNL     1      -0.184  31.899  25.997  0.00  0.00    +0.120 A 
ATOM     39  N   UNL     1       0.449  30.844  26.646  0.00  0.00    -0.263 NA
ATOM     40  C   UNL     1       1.334  31.039  27.717  0.00  0.00    +0.111 A 
ENDBRANCH   4   3
ENDBRANCH  10   9
BRANCH  12  13
ATOM     13  N   UNL     1      -0.601  42.266  24.158  0.00  0.00    -0.281 N 
ATOM     14  C   UNL     1       0.038  43.337  24.761  0.00  0.00    +0.248 C 
ATOM     30  O   UNL     1      -0.166  43.707  25.907  0.00  0.00    -0.270 OA
ATOM     31  H   UNL     1      -0.485  42.185  23.148  0.00  0.00    +0.155 HD
BRANCH  14  15
ATOM     15  C   UNL     1       1.039  44.118  23.971  0.00  0.00    +0.037 A 
ATOM     16  C   UNL     1       2.394  44.348  24.478  0.00  0.00    +0.013 A 
ATOM     17  C   UNL     1       3.334  45.119  23.704  0.00  0.00    +0.005 A 
ATOM     18  C   UNL     1       2.921  45.665  22.413  0.00  0.00    -0.033 A 
ATOM     28  C   UNL     1       1.572  45.418  21.932  0.00  0.00    +0.005 A 
ATOM     29  C   UNL     1       0.648  44.663  22.689  0.00  0.00    +0.013 A 
BRANCH  18  19
ATOM     19  C   UNL     1       3.851  46.518  21.530  0.00  0.00    +0.119 C 
BRANCH  19  20
ATOM     20  N   UNL     1       4.328  45.909  20.252  0.00  0.00    -0.302 NA
ATOM     21  C   UNL     1       4.831  44.477  20.450  0.00  0.00    +0.066 C 
ATOM     22  C   UNL     1       5.304  43.848  19.100  0.00  0.00    -0.064 C 
ATOM     23  N   UNL     1       6.397  44.725  18.487  0.00  0.00    +0.379 N 
ATOM     24  C   UNL     1       6.885  44.106  17.246  0.00  0.00    -0.096 C 
ATOM     25  H   UNL     1       7.248  44.758  19.206  0.00  0.00    -0.082 HD
ATOM     26  C   UNL     1       5.906  46.152  18.288  0.00  0.00    -0.064 C 
ATOM     27  C   UNL     1       5.410  46.758  19.631  0.00  0.00    +0.066 C 
ENDBRANCH  19  20
ENDBRANCH  18  19
ENDBRANCH  14  15
ENDBRANCH  12  13
TORSDOF 6
ENDMDL
MODEL 4
REMARK VINA RESULT:      -7.4     10.628     14.460
REMARK  Name = C:\Users\Docking\Desktop\test protocol\1iep_ligandH.pdb
REMARK  8 active torsions:
REMARK  status: ('A' for Active; 'I' for Inactive)
REMARK    1  A    between atoms: _5  and  _11
REMARK    2  A    between atoms: _19  and  _21
REMARK    3  A    between atoms: _22  and  _66
REMARK    4  A    between atoms: _27  and  _30
REMARK    5  A    between atoms: _32  and  _33
REMARK    6  A    between atoms: _38  and  _43
REMARK    7  A    between atoms: _43  and  _46
REMARK    8  A    between atoms: _53  and  _55
REMARK                            x       y       z     vdW  Elec       q    Type
REMARK                         _______ _______ _______ _____ _____    ______ ____
ROOT
ATOM     10  C   UNL     1       4.433  49.106  26.546  0.00  0.00    +0.038 A 
ATOM     11  C   UNL     1       3.546  48.020  26.333  0.00  0.00    +0.047 A 
ATOM     12  C   UNL     1       2.109  48.181  26.487  0.00  0.00    +0.035 A 
ATOM     32  C   UNL     1       1.609  49.463  26.856  0.00  0.00    +0.024 A 
ATOM     33  C   UNL     1       2.496  50.578  27.078  0.00  0.00    +0.007 A 
ATOM     34  C   UNL     1       3.915  50.424  26.930  0.00  0.00    -0.029 A 
ATOM     35  C   UNL     1       4.820  51.652  27.187  0.00  0.00    +0.045 C 
ENDROOT
BRANCH  10   9
ATOM      4  C   UNL     1       8.783  48.034  28.269  0.00  0.00    +0.077 A 
ATOM      5  C   UNL     1       8.287  47.910  29.609  0.00  0.00    +0.048 A 
ATOM      6  C   UNL     1       6.908  48.137  29.814  0.00  0.00    +0.116 A 
ATOM      7  N   UNL     1       6.094  48.463  28.750  0.00  0.00    -0.223 NA
ATOM      8  C   UNL     1       6.605  48.576  27.470  0.00  0.00    +0.220 A 
ATOM      9  N   UNL     1       5.805  48.895  26.384  0.00  0.00    -0.283 N 
ATOM     36  H   UNL     1       6.221  48.976  25.457  0.00  0.00    +0.155 HD
ATOM     37  N   UNL     1       7.920  48.366  27.248  0.00  0.00    -0.214 NA
BRANCH   4   3
ATOM      1  C   UNL     1      12.059  46.542  26.736  0.00  0.00    +0.020 A 
ATOM      2  C   UNL     1      10.662  46.701  27.072  0.00  0.00    +0.013 A 
ATOM      3  C   UNL     1      10.217  47.821  27.892  0.00  0.00    +0.019 A 
ATOM     38  C   UNL     1      11.216  48.770  28.358  0.00  0.00    +0.120 A 
ATOM     39  N   UNL     1      12.554  48.591  28.019  0.00  0.00    -0.263 NA
ATOM     40  C   UNL     1      12.995  47.516  27.233  0.00  0.00    +0.111 A 
ENDBRANCH   4   3
ENDBRANCH  10   9
BRANCH  12  13
ATOM     13  N   UNL     1       1.160  47.113  26.291  0.00  0.00    -0.281 N 
ATOM     14  C   UNL     1       0.687  46.602  25.094  0.00  0.00    +0.248 C 
ATOM     30  O   UNL     1       0.848  47.133  24.005  0.00  0.00    -0.270 OA
ATOM     31  H   UNL     1       0.793  46.680  27.139  0.00  0.00    +0.155 HD
BRANCH  14  15
ATOM     15  C   UNL     1      -0.089  45.325  25.109  0.00  0.00    +0.037 A 
ATOM     16  C   UNL     1      -1.293  45.157  24.292  0.00  0.00    +0.013 A 
ATOM     17  C   UNL     1      -2.033  43.921  24.339  0.00  0.00    +0.005 A 
ATOM     18  C   UNL     1      -1.569  42.841  25.206  0.00  0.00    -0.033 A 
ATOM     28  C   UNL     1      -0.368  43.032  26.003  0.00  0.00    +0.005 A 
ATOM     29  C   UNL     1       0.359  44.243  25.960  0.00  0.00    +0.013 A 
BRANCH  18  19
ATOM     19  C   UNL     1      -2.308  41.496  25.335  0.00  0.00    +0.119 C 
BRANCH  19  20
ATOM     20  N   UNL     1      -1.670  40.303  24.703  0.00  0.00    -0.302 NA
ATOM     21  C   UNL     1      -2.327  39.940  23.368  0.00  0.00    +0.066 C 
ATOM     22  C   UNL     1      -1.633  38.703  22.710  0.00  0.00    -0.064 C 
ATOM     23  N   UNL     1      -1.683  37.519  23.677  0.00  0.00    +0.379 N 
ATOM     24  C   UNL     1      -1.083  36.339  23.039  0.00  0.00    -0.096 C 
ATOM     25  H   UNL     1      -2.756  37.289  23.875  0.00  0.00    -0.082 HD
ATOM     26  C   UNL     1      -1.034  37.872  25.008  0.00  0.00    -0.064 C 
ATOM     27  C   UNL     1      -1.712  39.120  25.640  0.00  0.00    +0.066 C 
ENDBRANCH  19  20
ENDBRANCH  18  19
ENDBRANCH  14  15
ENDBRANCH  12  13
TORSDOF 6
ENDMDL
MODEL 5
REMARK VINA RESULT:      -7.3     27.425     29.789
REMARK  Name = C:\Users\Docking\Desktop\test protocol\1iep_ligandH.pdb
REMARK  8 active torsions:
REMARK  status: ('A' for Active; 'I' for Inactive)
REMARK    1  A    between atoms: _5  and  _11
REMARK    2  A    between atoms: _19  and  _21
REMARK    3  A    between atoms: _22  and  _66
REMARK    4  A    between atoms: _27  and  _30
REMARK    5  A    between atoms: _32  and  _33
REMARK    6  A    between atoms: _38  and  _43
REMARK    7  A    between atoms: _43  and  _46
REMARK    8  A    between atoms: _53  and  _55
REMARK                            x       y       z     vdW  Elec       q    Type
REMARK                         _______ _______ _______ _____ _____    ______ ____
ROOT
ATOM     10  C   UNL     1       6.337  27.712  11.746  0.00  0.00    +0.038 A 
ATOM     11  C   UNL     1       5.694  26.839  12.660  0.00  0.00    +0.047 A 
ATOM     12  C   UNL     1       4.256  26.625  12.612  0.00  0.00    +0.035 A 
ATOM     32  C   UNL     1       3.503  27.315  11.618  0.00  0.00    +0.024 A 
ATOM     33  C   UNL     1       4.141  28.208  10.681  0.00  0.00    +0.007 A 
ATOM     34  C   UNL     1       5.559  28.424  10.726  0.00  0.00    -0.029 A 
ATOM     35  C   UNL     1       6.188  29.397   9.701  0.00  0.00    +0.045 C 
ENDROOT
BRANCH  10   9
ATOM      4  C   UNL     1      10.838  26.361  10.772  0.00  0.00    +0.077 A 
ATOM      5  C   UNL     1      10.397  25.208  10.042  0.00  0.00    +0.048 A 
ATOM      6  C   UNL     1       9.004  24.994   9.946  0.00  0.00    +0.116 A 
ATOM      7  N   UNL     1       8.126  25.875  10.540  0.00  0.00    -0.223 NA
ATOM      8  C   UNL     1       8.585  26.977  11.239  0.00  0.00    +0.220 A 
ATOM      9  N   UNL     1       7.721  27.880  11.838  0.00  0.00    -0.283 N 
ATOM     36  H   UNL     1       8.099  28.676  12.351  0.00  0.00    +0.155 HD
ATOM     37  N   UNL     1       9.911  27.201  11.346  0.00  0.00    -0.214 NA
BRANCH   4   3
ATOM      1  C   UNL     1      14.694  26.735  10.231  0.00  0.00    +0.020 A 
ATOM      2  C   UNL     1      13.318  26.360  10.003  0.00  0.00    +0.013 A 
ATOM      3  C   UNL     1      12.279  26.723  10.959  0.00  0.00    +0.019 A 
ATOM     38  C   UNL     1      12.670  27.472  12.144  0.00  0.00    +0.120 A 
ATOM     39  N   UNL     1      14.003  27.818  12.337  0.00  0.00    -0.263 NA
ATOM     40  C   UNL     1      15.012  27.473  11.425  0.00  0.00    +0.111 A 
ENDBRANCH   4   3
ENDBRANCH  10   9
BRANCH  12  13
ATOM     13  N   UNL     1       3.547  25.756  13.519  0.00  0.00    -0.281 N 
ATOM     14  C   UNL     1       4.021  24.624  14.159  0.00  0.00    +0.248 C 
ATOM     30  O   UNL     1       5.070  24.061  13.882  0.00  0.00    -0.270 OA
ATOM     31  H   UNL     1       2.577  26.007  13.712  0.00  0.00    +0.155 HD
BRANCH  14  15
ATOM     15  C   UNL     1       3.207  24.020  15.257  0.00  0.00    +0.037 A 
ATOM     16  C   UNL     1       2.118  23.083  14.969  0.00  0.00    +0.013 A 
ATOM     17  C   UNL     1       1.337  22.528  16.046  0.00  0.00    +0.005 A 
ATOM     18  C   UNL     1       1.642  22.909  17.422  0.00  0.00    -0.033 A 
ATOM     28  C   UNL     1       2.731  23.837  17.681  0.00  0.00    +0.005 A 
ATOM     29  C   UNL     1       3.498  24.384  16.628  0.00  0.00    +0.013 A 
BRANCH  18  19
ATOM     19  C   UNL     1       0.847  22.384  18.632  0.00  0.00    +0.119 C 
BRANCH  19  20
ATOM     20  N   UNL     1      -0.171  23.297  19.230  0.00  0.00    -0.302 NA
ATOM     21  C   UNL     1       0.443  24.241  20.268  0.00  0.00    +0.066 C 
ATOM     22  C   UNL     1      -0.632  25.205  20.868  0.00  0.00    -0.064 C 
ATOM     23  N   UNL     1      -1.764  24.382  21.486  0.00  0.00    +0.379 N 
ATOM     24  C   UNL     1      -2.747  25.284  22.102  0.00  0.00    -0.096 C 
ATOM     25  H   UNL     1      -1.323  23.757  22.298  0.00  0.00    -0.082 HD
ATOM     26  C   UNL     1      -2.378  23.439  20.461  0.00  0.00    -0.064 C 
ATOM     27  C   UNL     1      -1.296  22.505  19.851  0.00  0.00    +0.066 C 
ENDBRANCH  19  20
ENDBRANCH  18  19
ENDBRANCH  14  15
ENDBRANCH  12  13
TORSDOF 6
ENDMDL
