MODEL 1
REMARK VINA RESULT:     -10.1      0.000      0.000
REMARK  Name = C:\Users\Docking\Desktop\test protocol\1iep_ligandH.pdb
REMARK  8 active torsions:
REMARK  status: ('A' for Active; 'I' for Inactive)
REMARK    1  A    between atoms: _5  and  _11
REMARK    2  A    between atoms: _19  and  _21
REMARK    3  A    between atoms: _22  and  _66
REMARK    4  A    between atoms: _27  and  _30
REMARK    5  A    between atoms: _32  and  _33
REMARK    6  A    between atoms: _38  and  _43
REMARK    7  A    between atoms: _43  and  _46
REMARK    8  A    between atoms: _53  and  _55
REMARK                            x       y       z     vdW  Elec       q    Type
REMARK                         _______ _______ _______ _____ _____    ______ ____
ROOT
ATOM     10  C   UNL     1      -2.868 -16.762  18.008  0.00  0.00    +0.038 A 
ATOM     11  C   UNL     1      -3.773 -17.434  17.148  0.00  0.00    +0.047 A 
ATOM     12  C   UNL     1      -3.390 -17.806  15.795  0.00  0.00    +0.035 A 
ATOM     32  C   UNL     1      -2.075 -17.482  15.352  0.00  0.00    +0.024 A 
ATOM     33  C   UNL     1      -1.142 -16.798  16.213  0.00  0.00    +0.007 A 
ATOM     34  C   UNL     1      -1.515 -16.426  17.547  0.00  0.00    -0.029 A 
ATOM     35  C   UNL     1      -0.476 -15.690  18.424  0.00  0.00    +0.045 C 
ENDROOT
BRANCH  10   9
ATOM      4  C   UNL     1      -4.667 -13.667  21.205  0.00  0.00    +0.077 A 
ATOM      5  C   UNL     1      -4.751 -12.618  20.230  0.00  0.00    +0.048 A 
ATOM      6  C   UNL     1      -4.314 -12.913  18.919  0.00  0.00    +0.116 A 
ATOM      7  N   UNL     1      -3.832 -14.168  18.617  0.00  0.00    -0.223 NA
ATOM      8  C   UNL     1      -3.763 -15.157  19.581  0.00  0.00    +0.220 A 
ATOM      9  N   UNL     1      -3.288 -16.429  19.298  0.00  0.00    -0.283 N 
ATOM     36  H   UNL     1      -3.246 -17.128  20.039  0.00  0.00    +0.155 HD
ATOM     37  N   UNL     1      -4.172 -14.899  20.841  0.00  0.00    -0.214 NA
BRANCH   4   3
ATOM      1  C   UNL     1      -4.620 -13.072  25.071  0.00  0.00    +0.020 A 
ATOM      2  C   UNL     1      -4.157 -13.214  23.710  0.00  0.00    +0.013 A 
ATOM      3  C   UNL     1      -5.092 -13.510  22.632  0.00  0.00    +0.019 A 
ATOM     38  C   UNL     1      -6.501 -13.656  22.967  0.00  0.00    +0.120 A 
ATOM     39  N   UNL     1      -6.917 -13.515  24.287  0.00  0.00    -0.263 NA
ATOM     40  C   UNL     1      -6.026 -13.232  25.333  0.00  0.00    +0.111 A 
ENDBRANCH   4   3
ENDBRANCH  10   9
BRANCH  12  13
ATOM     13  N   UNL     1      -4.270 -18.482  14.873  0.00  0.00    -0.281 N 
ATOM     14  C   UNL     1      -4.681 -18.055  13.621  0.00  0.00    +0.248 C 
ATOM     30  O   UNL     1      -4.524 -16.923  13.191  0.00  0.00    -0.270 OA
ATOM     31  H   UNL     1      -4.632 -19.384  15.181  0.00  0.00    +0.155 HD
BRANCH  14  15
ATOM     15  C   UNL     1      -5.382 -19.023  12.723  0.00  0.00    +0.037 A 
ATOM     16  C   UNL     1      -6.554 -18.622  11.940  0.00  0.00    +0.013 A 
ATOM     17  C   UNL     1      -7.221 -19.580  11.095  0.00  0.00    +0.005 A 
ATOM     18  C   UNL     1      -6.716 -20.950  11.027  0.00  0.00    -0.033 A 
ATOM     28  C   UNL     1      -5.549 -21.319  11.810  0.00  0.00    +0.005 A 
ATOM     29  C   UNL     1      -4.893 -20.383  12.641  0.00  0.00    +0.013 A 
BRANCH  18  19
ATOM     19  C   UNL     1      -7.378 -22.043  10.168  0.00  0.00    +0.119 C 
BRANCH  19  20
ATOM     20  N   UNL     1      -8.439 -22.872  10.814  0.00  0.00    -0.302 NA
ATOM     21  C   UNL     1      -9.570 -22.013  11.387  0.00  0.00    +0.066 C 
ATOM     22  C   UNL     1     -10.682 -22.898  12.039  0.00  0.00    -0.064 C 
ATOM     23  N   UNL     1     -10.060 -23.771  13.130  0.00  0.00    +0.379 N 
ATOM     24  C   UNL     1     -11.112 -24.562  13.785  0.00  0.00    -0.096 C 
ATOM     25  H   UNL     1      -9.620 -23.092  13.897  0.00  0.00    -0.082 HD
ATOM     26  C   UNL     1      -8.932 -24.627  12.570  0.00  0.00    -0.064 C 
ATOM     27  C   UNL     1      -7.847 -23.740  11.898  0.00  0.00    +0.066 C 
ENDBRANCH  19  20
ENDBRANCH  18  19
ENDBRANCH  14  15
ENDBRANCH  12  13
TORSDOF 6
ENDMDL
MODEL 2
REMARK VINA RESULT:      -9.6      2.515     12.111
REMARK  Name = C:\Users\Docking\Desktop\test protocol\1iep_ligandH.pdb
REMARK  8 active torsions:
REMARK  status: ('A' for Active; 'I' for Inactive)
REMARK    1  A    between atoms: _5  and  _11
REMARK    2  A    between atoms: _19  and  _21
REMARK    3  A    between atoms: _22  and  _66
REMARK    4  A    between atoms: _27  and  _30
REMARK    5  A    between atoms: _32  and  _33
REMARK    6  A    between atoms: _38  and  _43
REMARK    7  A    between atoms: _43  and  _46
REMARK    8  A    between atoms: _53  and  _55
REMARK                            x       y       z     vdW  Elec       q    Type
REMARK                         _______ _______ _______ _____ _____    ______ ____
ROOT
ATOM     10  C   UNL     1      -2.075 -21.007  14.387  0.00  0.00    +0.038 A 
ATOM     11  C   UNL     1      -2.424 -19.875  15.166  0.00  0.00    +0.047 A 
ATOM     12  C   UNL     1      -1.672 -19.522  16.360  0.00  0.00    +0.035 A 
ATOM     32  C   UNL     1      -0.569 -20.344  16.731  0.00  0.00    +0.024 A 
ATOM     33  C   UNL     1      -0.201 -21.500  15.952  0.00  0.00    +0.007 A 
ATOM     34  C   UNL     1      -0.940 -21.854  14.774  0.00  0.00    -0.029 A 
ATOM     35  C   UNL     1      -0.504 -23.108  13.980  0.00  0.00    +0.045 C 
ENDROOT
BRANCH  10   9
ATOM      4  C   UNL     1      -6.011 -22.733  12.250  0.00  0.00    +0.077 A 
ATOM      5  C   UNL     1      -6.599 -23.109  13.503  0.00  0.00    +0.048 A 
ATOM      6  C   UNL     1      -5.853 -22.847  14.674  0.00  0.00    +0.116 A 
ATOM      7  N   UNL     1      -4.612 -22.253  14.586  0.00  0.00    -0.223 NA
ATOM      8  C   UNL     1      -4.074 -21.905  13.361  0.00  0.00    +0.220 A 
ATOM      9  N   UNL     1      -2.831 -21.300  13.250  0.00  0.00    -0.283 N 
ATOM     36  H   UNL     1      -2.466 -21.065  12.327  0.00  0.00    +0.155 HD
ATOM     37  N   UNL     1      -4.766 -22.146  12.228  0.00  0.00    -0.214 NA
BRANCH   4   3
ATOM      1  C   UNL     1      -6.884 -22.555   8.441  0.00  0.00    +0.020 A 
ATOM      2  C   UNL     1      -6.205 -22.320   9.694  0.00  0.00    +0.013 A 
ATOM      3  C   UNL     1      -6.677 -22.941  10.925  0.00  0.00    +0.019 A 
ATOM     38  C   UNL     1      -7.849 -23.801  10.853  0.00  0.00    +0.120 A 
ATOM     39  N   UNL     1      -8.484 -24.007   9.632  0.00  0.00    -0.263 NA
ATOM     40  C   UNL     1      -8.039 -23.413   8.441  0.00  0.00    +0.111 A 
ENDBRANCH   4   3
ENDBRANCH  10   9
BRANCH  12  13
ATOM     13  N   UNL     1      -1.985 -18.388  17.195  0.00  0.00    -0.281 N 
ATOM     14  C   UNL     1      -1.957 -17.046  16.854  0.00  0.00    +0.248 C 
ATOM     30  O   UNL     1      -1.450 -16.603  15.834  0.00  0.00    -0.270 OA
ATOM     31  H   UNL     1      -2.260 -18.601  18.154  0.00  0.00    +0.155 HD
BRANCH  14  15
ATOM     15  C   UNL     1      -2.568 -16.051  17.786  0.00  0.00    +0.037 A 
ATOM     16  C   UNL     1      -4.008 -15.781  17.773  0.00  0.00    +0.013 A 
ATOM     17  C   UNL     1      -4.569 -14.804  18.671  0.00  0.00    +0.005 A 
ATOM     18  C   UNL     1      -3.689 -14.090  19.593  0.00  0.00    -0.033 A 
ATOM     28  C   UNL     1      -2.265 -14.381  19.590  0.00  0.00    +0.005 A 
ATOM     29  C   UNL     1      -1.711 -15.338  18.709  0.00  0.00    +0.013 A 
BRANCH  18  19
ATOM     19  C   UNL     1      -4.198 -13.016  20.573  0.00  0.00    +0.119 C 
BRANCH  19  20
ATOM     20  N   UNL     1      -4.403 -13.428  21.993  0.00  0.00    -0.302 NA
ATOM     21  C   UNL     1      -5.887 -13.464  22.373  0.00  0.00    +0.066 C 
ATOM     22  C   UNL     1      -6.084 -13.919  23.855  0.00  0.00    -0.064 C 
ATOM     23  N   UNL     1      -5.311 -12.978  24.781  0.00  0.00    +0.379 N 
ATOM     24  C   UNL     1      -5.542 -13.368  26.180  0.00  0.00    -0.096 C 
ATOM     25  H   UNL     1      -5.726 -11.952  24.643  0.00  0.00    -0.082 HD
ATOM     26  C   UNL     1      -3.836 -12.933  24.410  0.00  0.00    -0.064 C 
ATOM     27  C   UNL     1      -3.652 -12.509  22.926  0.00  0.00    +0.066 C 
ENDBRANCH  19  20
ENDBRANCH  18  19
ENDBRANCH  14  15
ENDBRANCH  12  13
TORSDOF 6
ENDMDL
MODEL 3
REMARK VINA RESULT:      -8.7     15.109     19.282
REMARK  Name = C:\Users\Docking\Desktop\test protocol\1iep_ligandH.pdb
REMARK  8 active torsions:
REMARK  status: ('A' for Active; 'I' for Inactive)
REMARK    1  A    between atoms: _5  and  _11
REMARK    2  A    between atoms: _19  and  _21
REMARK    3  A    between atoms: _22  and  _66
REMARK    4  A    between atoms: _27  and  _30
REMARK    5  A    between atoms: _32  and  _33
REMARK    6  A    between atoms: _38  and  _43
REMARK    7  A    between atoms: _43  and  _46
REMARK    8  A    between atoms: _53  and  _55
REMARK                            x       y       z     vdW  Elec       q    Type
REMARK                         _______ _______ _______ _____ _____    ______ ____
ROOT
ATOM     10  C   UNL     1       8.193 -10.337  21.173  0.00  0.00    +0.038 A 
ATOM     11  C   UNL     1       7.662 -11.071  22.264  0.00  0.00    +0.047 A 
ATOM     12  C   UNL     1       6.497 -10.596  22.995  0.00  0.00    +0.035 A 
ATOM     32  C   UNL     1       5.897  -9.370  22.586  0.00  0.00    +0.024 A 
ATOM     33  C   UNL     1       6.425  -8.610  21.480  0.00  0.00    +0.007 A 
ATOM     34  C   UNL     1       7.575  -9.072  20.757  0.00  0.00    -0.029 A 
ATOM     35  C   UNL     1       8.102  -8.213  19.584  0.00  0.00    +0.045 C 
ENDROOT
BRANCH  10   9
ATOM      4  C   UNL     1      10.240 -12.793  17.594  0.00  0.00    +0.077 A 
ATOM      5  C   UNL     1       8.970 -13.126  17.017  0.00  0.00    +0.048 A 
ATOM      6  C   UNL     1       7.813 -12.652  17.676  0.00  0.00    +0.116 A 
ATOM      7  N   UNL     1       7.931 -11.901  18.826  0.00  0.00    -0.223 NA
ATOM      8  C   UNL     1       9.171 -11.599  19.357  0.00  0.00    +0.220 A 
ATOM      9  N   UNL     1       9.313 -10.839  20.507  0.00  0.00    -0.283 N 
ATOM     36  H   UNL     1      10.246 -10.645  20.871  0.00  0.00    +0.155 HD
ATOM     37  N   UNL     1      10.291 -12.042  18.747  0.00  0.00    -0.214 NA
BRANCH   4   3
ATOM      1  C   UNL     1      13.186 -13.437  15.102  0.00  0.00    +0.020 A 
ATOM      2  C   UNL     1      11.905 -13.007  15.614  0.00  0.00    +0.013 A 
ATOM      3  C   UNL     1      11.552 -13.218  17.012  0.00  0.00    +0.019 A 
ATOM     38  C   UNL     1      12.527 -13.871  17.873  0.00  0.00    +0.120 A 
ATOM     39  N   UNL     1      13.752 -14.275  17.352  0.00  0.00    -0.263 NA
ATOM     40  C   UNL     1      14.102 -14.079  16.008  0.00  0.00    +0.111 A 
ENDBRANCH   4   3
ENDBRANCH  10   9
BRANCH  12  13
ATOM     13  N   UNL     1       5.918 -11.295  24.115  0.00  0.00    -0.281 N 
ATOM     14  C   UNL     1       6.505 -11.580  25.337  0.00  0.00    +0.248 C 
ATOM     30  O   UNL     1       7.698 -11.463  25.575  0.00  0.00    -0.270 OA
ATOM     31  H   UNL     1       4.958 -11.619  23.992  0.00  0.00    +0.155 HD
BRANCH  14  15
ATOM     15  C   UNL     1       5.645 -12.081  26.452  0.00  0.00    +0.037 A 
ATOM     16  C   UNL     1       5.896 -13.381  27.080  0.00  0.00    +0.013 A 
ATOM     17  C   UNL     1       5.041 -13.848  28.142  0.00  0.00    +0.005 A 
ATOM     18  C   UNL     1       3.926 -13.013  28.584  0.00  0.00    -0.033 A 
ATOM     28  C   UNL     1       3.703 -11.726  27.947  0.00  0.00    +0.005 A 
ATOM     29  C   UNL     1       4.539 -11.265  26.905  0.00  0.00    +0.013 A 
BRANCH  18  19
ATOM     19  C   UNL     1       2.950 -13.441  29.696  0.00  0.00    +0.119 C 
BRANCH  19  20
ATOM     20  N   UNL     1       3.472 -13.457  31.095  0.00  0.00    -0.302 NA
ATOM     21  C   UNL     1       3.769 -14.878  31.581  0.00  0.00    +0.066 C 
ATOM     22  C   UNL     1       4.335 -14.875  33.039  0.00  0.00    -0.064 C 
ATOM     23  N   UNL     1       3.338 -14.182  33.968  0.00  0.00    +0.379 N 
ATOM     24  C   UNL     1       3.841 -14.228  35.349  0.00  0.00    -0.096 C 
ATOM     25  H   UNL     1       2.386 -14.761  33.935  0.00  0.00    -0.082 HD
ATOM     26  C   UNL     1       3.035 -12.769  33.491  0.00  0.00    -0.064 C 
ATOM     27  C   UNL     1       2.501 -12.781  32.031  0.00  0.00    +0.066 C 
ENDBRANCH  19  20
ENDBRANCH  18  19
ENDBRANCH  14  15
ENDBRANCH  12  13
TORSDOF 6
ENDMDL
MODEL 4
REMARK VINA RESULT:      -8.5     27.794     30.870
REMARK  Name = C:\Users\Docking\Desktop\test protocol\1iep_ligandH.pdb
REMARK  8 active torsions:
REMARK  status: ('A' for Active; 'I' for Inactive)
REMARK    1  A    between atoms: _5  and  _11
REMARK    2  A    between atoms: _19  and  _21
REMARK    3  A    between atoms: _22  and  _66
REMARK    4  A    between atoms: _27  and  _30
REMARK    5  A    between atoms: _32  and  _33
REMARK    6  A    between atoms: _38  and  _43
REMARK    7  A    between atoms: _43  and  _46
REMARK    8  A    between atoms: _53  and  _55
REMARK                            x       y       z     vdW  Elec       q    Type
REMARK                         _______ _______ _______ _____ _____    ______ ____
ROOT
ATOM     10  C   UNL     1      18.780 -10.454   0.097  0.00  0.00    +0.038 A 
ATOM     11  C   UNL     1      18.767 -10.435   1.515  0.00  0.00    +0.047 A 
ATOM     12  C   UNL     1      19.973 -10.708   2.282  0.00  0.00    +0.035 A 
ATOM     32  C   UNL     1      21.175 -10.994   1.572  0.00  0.00    +0.024 A 
ATOM     33  C   UNL     1      21.205 -11.019   0.131  0.00  0.00    +0.007 A 
ATOM     34  C   UNL     1      20.018 -10.753  -0.631  0.00  0.00    -0.029 A 
ATOM     35  C   UNL     1      20.108 -10.799  -2.174  0.00  0.00    +0.045 C 
ENDROOT
BRANCH  10   9
ATOM      4  C   UNL     1      15.859  -7.502  -2.310  0.00  0.00    +0.077 A 
ATOM      5  C   UNL     1      16.762  -6.396  -2.167  0.00  0.00    +0.048 A 
ATOM      6  C   UNL     1      17.963  -6.627  -1.460  0.00  0.00    +0.116 A 
ATOM      7  N   UNL     1      18.232  -7.875  -0.941  0.00  0.00    -0.223 NA
ATOM      8  C   UNL     1      17.340  -8.919  -1.096  0.00  0.00    +0.220 A 
ATOM      9  N   UNL     1      17.593 -10.184  -0.589  0.00  0.00    -0.283 N 
ATOM     36  H   UNL     1      16.906 -10.927  -0.718  0.00  0.00    +0.155 HD
ATOM     37  N   UNL     1      16.184  -8.724  -1.765  0.00  0.00    -0.214 NA
BRANCH   4   3
ATOM      1  C   UNL     1      12.079  -7.875  -3.245  0.00  0.00    +0.020 A 
ATOM      2  C   UNL     1      13.317  -7.986  -2.507  0.00  0.00    +0.013 A 
ATOM      3  C   UNL     1      14.551  -7.417  -3.033  0.00  0.00    +0.019 A 
ATOM     38  C   UNL     1      14.499  -6.737  -4.319  0.00  0.00    +0.120 A 
ATOM     39  N   UNL     1      13.293  -6.647  -5.008  0.00  0.00    -0.263 NA
ATOM     40  C   UNL     1      12.099  -7.192  -4.512  0.00  0.00    +0.111 A 
ENDBRANCH   4   3
ENDBRANCH  10   9
BRANCH  12  13
ATOM     13  N   UNL     1      20.019 -10.710   3.723  0.00  0.00    -0.281 N 
ATOM     14  C   UNL     1      19.717 -11.754   4.583  0.00  0.00    +0.248 C 
ATOM     30  O   UNL     1      19.153 -12.784   4.248  0.00  0.00    -0.270 OA
ATOM     31  H   UNL     1      20.309  -9.837   4.163  0.00  0.00    +0.155 HD
BRANCH  14  15
ATOM     15  C   UNL     1      20.082 -11.628   6.027  0.00  0.00    +0.037 A 
ATOM     16  C   UNL     1      20.006 -10.339   6.721  0.00  0.00    +0.013 A 
ATOM     17  C   UNL     1      20.380 -10.242   8.109  0.00  0.00    +0.005 A 
ATOM     18  C   UNL     1      20.832 -11.439   8.815  0.00  0.00    -0.033 A 
ATOM     28  C   UNL     1      20.892 -12.706   8.104  0.00  0.00    +0.005 A 
ATOM     29  C   UNL     1      20.527 -12.805   6.742  0.00  0.00    +0.013 A 
BRANCH  18  19
ATOM     19  C   UNL     1      21.270 -11.425  10.291  0.00  0.00    +0.119 C 
BRANCH  19  20
ATOM     20  N   UNL     1      21.893 -12.670  10.832  0.00  0.00    -0.302 NA
ATOM     21  C   UNL     1      21.451 -12.955  12.270  0.00  0.00    +0.066 C 
ATOM     22  C   UNL     1      22.094 -14.273  12.812  0.00  0.00    -0.064 C 
ATOM     23  N   UNL     1      23.617 -14.168  12.724  0.00  0.00    +0.379 N 
ATOM     24  C   UNL     1      24.226 -15.382  13.287  0.00  0.00    -0.096 C 
ATOM     25  H   UNL     1      23.933 -13.306  13.357  0.00  0.00    -0.082 HD
ATOM     26  C   UNL     1      24.065 -13.881  11.298  0.00  0.00    -0.064 C 
ATOM     27  C   UNL     1      23.398 -12.586  10.759  0.00  0.00    +0.066 C 
ENDBRANCH  19  20
ENDBRANCH  18  19
ENDBRANCH  14  15
ENDBRANCH  12  13
TORSDOF 6
ENDMDL
MODEL 5
REMARK VINA RESULT:      -8.5     23.371     27.266
REMARK  Name = C:\Users\Docking\Desktop\test protocol\1iep_ligandH.pdb
REMARK  8 active torsions:
REMARK  status: ('A' for Active; 'I' for Inactive)
REMARK    1  A    between atoms: _5  and  _11
REMARK    2  A    between atoms: _19  and  _21
REMARK    3  A    between atoms: _22  and  _66
REMARK    4  A    between atoms: _27  and  _30
REMARK    5  A    between atoms: _32  and  _33
REMARK    6  A    between atoms: _38  and  _43
REMARK    7  A    between atoms: _43  and  _46
REMARK    8  A    between atoms: _53  and  _55
REMARK                            x       y       z     vdW  Elec       q    Type
REMARK                         _______ _______ _______ _____ _____    ______ ____
ROOT
ATOM     10  C   UNL     1       4.783   9.045  10.088  0.00  0.00    +0.038 A 
ATOM     11  C   UNL     1       5.241   7.760  10.477  0.00  0.00    +0.047 A 
ATOM     12  C   UNL     1       6.643   7.392  10.354  0.00  0.00    +0.035 A 
ATOM     32  C   UNL     1       7.552   8.358   9.833  0.00  0.00    +0.024 A 
ATOM     33  C   UNL     1       7.104   9.669   9.432  0.00  0.00    +0.007 A 
ATOM     34  C   UNL     1       5.721  10.036   9.549  0.00  0.00    -0.029 A 
ATOM     35  C   UNL     1       5.296  11.453   9.098  0.00  0.00    +0.045 C 
ENDROOT
BRANCH  10   9
ATOM      4  C   UNL     1       1.064  10.763  12.589  0.00  0.00    +0.077 A 
ATOM      5  C   UNL     1       1.890  11.064  13.723  0.00  0.00    +0.048 A 
ATOM      6  C   UNL     1       3.265  10.754  13.625  0.00  0.00    +0.116 A 
ATOM      7  N   UNL     1       3.766  10.187  12.474  0.00  0.00    -0.223 NA
ATOM      8  C   UNL     1       2.942   9.908  11.399  0.00  0.00    +0.220 A 
ATOM      9  N   UNL     1       3.426   9.345  10.228  0.00  0.00    -0.283 N 
ATOM     36  H   UNL     1       2.785   9.147   9.461  0.00  0.00    +0.155 HD
ATOM     37  N   UNL     1       1.625  10.193  11.468  0.00  0.00    -0.214 NA
BRANCH   4   3
ATOM      1  C   UNL     1      -2.700  11.131  13.587  0.00  0.00    +0.020 A 
ATOM      2  C   UNL     1      -1.286  10.854  13.688  0.00  0.00    +0.013 A 
ATOM      3  C   UNL     1      -0.407  11.034  12.539  0.00  0.00    +0.019 A 
ATOM     38  C   UNL     1      -0.996  11.500  11.293  0.00  0.00    +0.120 A 
ATOM     39  N   UNL     1      -2.362  11.757  11.224  0.00  0.00    -0.263 NA
ATOM     40  C   UNL     1      -3.217  11.586  12.323  0.00  0.00    +0.111 A 
ENDBRANCH   4   3
ENDBRANCH  10   9
BRANCH  12  13
ATOM     13  N   UNL     1       7.165   6.100  10.724  0.00  0.00    -0.281 N 
ATOM     14  C   UNL     1       6.700   4.852  10.343  0.00  0.00    +0.248 C 
ATOM     30  O   UNL     1       5.627   4.653   9.792  0.00  0.00    -0.270 OA
ATOM     31  H   UNL     1       7.976   6.106  11.343  0.00  0.00    +0.155 HD
BRANCH  14  15
ATOM     15  C   UNL     1       7.542   3.650  10.626  0.00  0.00    +0.037 A 
ATOM     16  C   UNL     1       8.440   3.094   9.611  0.00  0.00    +0.013 A 
ATOM     17  C   UNL     1       9.228   1.924   9.905  0.00  0.00    +0.005 A 
ATOM     18  C   UNL     1       9.122   1.301  11.222  0.00  0.00    -0.033 A 
ATOM     28  C   UNL     1       8.227   1.876  12.213  0.00  0.00    +0.005 A 
ATOM     29  C   UNL     1       7.452   3.023  11.928  0.00  0.00    +0.013 A 
BRANCH  18  19
ATOM     19  C   UNL     1       9.909   0.038  11.616  0.00  0.00    +0.119 C 
BRANCH  19  20
ATOM     20  N   UNL     1       9.144  -1.240  11.721  0.00  0.00    -0.302 NA
ATOM     21  C   UNL     1       9.901  -2.299  12.527  0.00  0.00    +0.066 C 
ATOM     22  C   UNL     1       9.076  -3.622  12.646  0.00  0.00    -0.064 C 
ATOM     23  N   UNL     1       8.745  -4.141  11.246  0.00  0.00    +0.379 N 
ATOM     24  C   UNL     1       8.019  -5.415  11.354  0.00  0.00    -0.096 C 
ATOM     25  H   UNL     1       9.709  -4.344  10.724  0.00  0.00    -0.082 HD
ATOM     26  C   UNL     1       7.994  -3.093  10.437  0.00  0.00    -0.064 C 
ATOM     27  C   UNL     1       8.810  -1.773  10.350  0.00  0.00    +0.066 C 
ENDBRANCH  19  20
ENDBRANCH  18  19
ENDBRANCH  14  15
ENDBRANCH  12  13
TORSDOF 6
ENDMDL
