MODEL 1
REMARK VINA RESULT:      -8.2      0.000      0.000
REMARK  Name = C:\Users\Docking\Desktop\test protocol\1iep_ligandH.pdb
REMARK  8 active torsions:
REMARK  status: ('A' for Active; 'I' for Inactive)
REMARK    1  A    between atoms: _5  and  _11
REMARK    2  A    between atoms: _19  and  _21
REMARK    3  A    between atoms: _22  and  _66
REMARK    4  A    between atoms: _27  and  _30
REMARK    5  A    between atoms: _32  and  _33
REMARK    6  A    between atoms: _38  and  _43
REMARK    7  A    between atoms: _43  and  _46
REMARK    8  A    between atoms: _53  and  _55
REMARK                            x       y       z     vdW  Elec       q    Type
REMARK                         _______ _______ _______ _____ _____    ______ ____
ROOT
ATOM     10  C   UNL     1       4.933 -19.302  71.410  0.00  0.00    +0.038 A 
ATOM     11  C   UNL     1       6.099 -20.091  71.579  0.00  0.00    +0.047 A 
ATOM     12  C   UNL     1       7.015 -19.853  72.684  0.00  0.00    +0.035 A 
ATOM     32  C   UNL     1       6.710 -18.805  73.600  0.00  0.00    +0.024 A 
ATOM     33  C   UNL     1       5.529 -17.993  73.443  0.00  0.00    +0.007 A 
ATOM     34  C   UNL     1       4.623 -18.221  72.354  0.00  0.00    -0.029 A 
ATOM     35  C   UNL     1       3.375 -17.316  72.230  0.00  0.00    +0.045 C 
ENDROOT
BRANCH  10   9
ATOM      4  C   UNL     1       3.695 -18.879  66.792  0.00  0.00    +0.077 A 
ATOM      5  C   UNL     1       4.810 -18.021  66.510  0.00  0.00    +0.048 A 
ATOM      6  C   UNL     1       5.675 -17.707  67.583  0.00  0.00    +0.116 A 
ATOM      7  N   UNL     1       5.432 -18.219  68.840  0.00  0.00    -0.223 NA
ATOM      8  C   UNL     1       4.347 -19.042  69.077  0.00  0.00    +0.220 A 
ATOM      9  N   UNL     1       4.088 -19.574  70.331  0.00  0.00    -0.283 N 
ATOM     36  H   UNL     1       3.273 -20.171  70.467  0.00  0.00    +0.155 HD
ATOM     37  N   UNL     1       3.506 -19.355  68.070  0.00  0.00    -0.214 NA
BRANCH   4   3
ATOM      1  C   UNL     1       1.240 -21.031  64.637  0.00  0.00    +0.020 A 
ATOM      2  C   UNL     1       2.207 -20.673  65.649  0.00  0.00    +0.013 A 
ATOM      3  C   UNL     1       2.695 -19.304  65.762  0.00  0.00    +0.019 A 
ATOM     38  C   UNL     1       2.180 -18.314  64.828  0.00  0.00    +0.120 A 
ATOM     39  N   UNL     1       1.251 -18.688  63.863  0.00  0.00    -0.263 NA
ATOM     40  C   UNL     1       0.775 -20.003  63.744  0.00  0.00    +0.111 A 
ENDBRANCH   4   3
ENDBRANCH  10   9
BRANCH  12  13
ATOM     13  N   UNL     1       8.219 -20.616  72.901  0.00  0.00    -0.281 N 
ATOM     14  C   UNL     1       9.459 -20.436  72.311  0.00  0.00    +0.248 C 
ATOM     30  O   UNL     1       9.666 -19.722  71.341  0.00  0.00    -0.270 OA
ATOM     31  H   UNL     1       8.149 -21.381  73.572  0.00  0.00    +0.155 HD
BRANCH  14  15
ATOM     15  C   UNL     1      10.638 -21.167  72.870  0.00  0.00    +0.037 A 
ATOM     16  C   UNL     1      10.879 -21.228  74.313  0.00  0.00    +0.013 A 
ATOM     17  C   UNL     1      12.032 -21.925  74.825  0.00  0.00    +0.005 A 
ATOM     18  C   UNL     1      12.953 -22.568  73.890  0.00  0.00    -0.033 A 
ATOM     28  C   UNL     1      12.687 -22.496  72.463  0.00  0.00    +0.005 A 
ATOM     29  C   UNL     1      11.558 -21.813  71.958  0.00  0.00    +0.013 A 
BRANCH  18  19
ATOM     19  C   UNL     1      14.220 -23.315  74.346  0.00  0.00    +0.119 C 
BRANCH  19  20
ATOM     20  N   UNL     1      14.491 -24.645  73.722  0.00  0.00    -0.302 NA
ATOM     21  C   UNL     1      13.484 -25.707  74.173  0.00  0.00    +0.066 C 
ATOM     22  C   UNL     1      13.769 -27.086  73.493  0.00  0.00    -0.064 C 
ATOM     23  N   UNL     1      15.198 -27.524  73.815  0.00  0.00    +0.379 N 
ATOM     24  C   UNL     1      15.450 -28.848  73.227  0.00  0.00    -0.096 C 
ATOM     25  H   UNL     1      15.279 -27.626  74.923  0.00  0.00    -0.082 HD
ATOM     26  C   UNL     1      16.206 -26.473  73.374  0.00  0.00    -0.064 C 
ATOM     27  C   UNL     1      15.897 -25.099  74.031  0.00  0.00    +0.066 C 
ENDBRANCH  19  20
ENDBRANCH  18  19
ENDBRANCH  14  15
ENDBRANCH  12  13
TORSDOF 6
ENDMDL
MODEL 2
REMARK VINA RESULT:      -8.1     34.015     36.152
REMARK  Name = C:\Users\Docking\Desktop\test protocol\1iep_ligandH.pdb
REMARK  8 active torsions:
REMARK  status: ('A' for Active; 'I' for Inactive)
REMARK    1  A    between atoms: _5  and  _11
REMARK    2  A    between atoms: _19  and  _21
REMARK    3  A    between atoms: _22  and  _66
REMARK    4  A    between atoms: _27  and  _30
REMARK    5  A    between atoms: _32  and  _33
REMARK    6  A    between atoms: _38  and  _43
REMARK    7  A    between atoms: _43  and  _46
REMARK    8  A    between atoms: _53  and  _55
REMARK                            x       y       z     vdW  Elec       q    Type
REMARK                         _______ _______ _______ _____ _____    ______ ____
ROOT
ATOM     10  C   UNL     1      -5.693 -48.971  55.893  0.00  0.00    +0.038 A 
ATOM     11  C   UNL     1      -4.968 -49.696  56.873  0.00  0.00    +0.047 A 
ATOM     12  C   UNL     1      -3.516 -49.767  56.837  0.00  0.00    +0.035 A 
ATOM     32  C   UNL     1      -2.833 -49.084  55.789  0.00  0.00    +0.024 A 
ATOM     33  C   UNL     1      -3.553 -48.343  54.783  0.00  0.00    +0.007 A 
ATOM     34  C   UNL     1      -4.986 -48.272  54.813  0.00  0.00    -0.029 A 
ATOM     35  C   UNL     1      -5.707 -47.468  53.705  0.00  0.00    +0.045 C 
ENDROOT
BRANCH  10   9
ATOM      4  C   UNL     1     -10.042 -50.670  54.782  0.00  0.00    +0.077 A 
ATOM      5  C   UNL     1      -9.492 -51.695  53.943  0.00  0.00    +0.048 A 
ATOM      6  C   UNL     1      -8.086 -51.747  53.818  0.00  0.00    +0.116 A 
ATOM      7  N   UNL     1      -7.298 -50.836  54.488  0.00  0.00    -0.223 NA
ATOM      8  C   UNL     1      -7.860 -49.858  55.288  0.00  0.00    +0.220 A 
ATOM      9  N   UNL     1      -7.087 -48.937  55.976  0.00  0.00    -0.283 N 
ATOM     36  H   UNL     1      -7.540 -48.226  56.550  0.00  0.00    +0.155 HD
ATOM     37  N   UNL     1      -9.201 -49.787  55.422  0.00  0.00    -0.214 NA
BRANCH   4   3
ATOM      1  C   UNL     1     -13.559 -50.516  56.487  0.00  0.00    +0.020 A 
ATOM      2  C   UNL     1     -12.138 -50.706  56.313  0.00  0.00    +0.013 A 
ATOM      3  C   UNL     1     -11.510 -50.488  55.016  0.00  0.00    +0.019 A 
ATOM     38  C   UNL     1     -12.355 -50.074  53.907  0.00  0.00    +0.120 A 
ATOM     39  N   UNL     1     -13.721 -49.900  54.103  0.00  0.00    -0.263 NA
ATOM     40  C   UNL     1     -14.337 -50.108  55.346  0.00  0.00    +0.111 A 
ENDBRANCH   4   3
ENDBRANCH  10   9
BRANCH  12  13
ATOM     13  N   UNL     1      -2.727 -50.494  57.800  0.00  0.00    -0.281 N 
ATOM     14  C   UNL     1      -2.905 -51.797  58.237  0.00  0.00    +0.248 C 
ATOM     30  O   UNL     1      -3.904 -52.467  58.022  0.00  0.00    -0.270 OA
ATOM     31  H   UNL     1      -1.943 -49.987  58.210  0.00  0.00    +0.155 HD
BRANCH  14  15
ATOM     15  C   UNL     1      -1.824 -52.443  59.041  0.00  0.00    +0.037 A 
ATOM     16  C   UNL     1      -0.630 -51.697  59.447  0.00  0.00    +0.013 A 
ATOM     17  C   UNL     1       0.407 -52.349  60.207  0.00  0.00    +0.005 A 
ATOM     18  C   UNL     1       0.252 -53.756  60.568  0.00  0.00    -0.033 A 
ATOM     28  C   UNL     1      -0.944 -54.471  60.157  0.00  0.00    +0.005 A 
ATOM     29  C   UNL     1      -1.962 -53.835  59.410  0.00  0.00    +0.013 A 
BRANCH  18  19
ATOM     19  C   UNL     1       1.317 -54.538  61.360  0.00  0.00    +0.119 C 
BRANCH  19  20
ATOM     20  N   UNL     1       1.408 -56.009  61.116  0.00  0.00    -0.302 NA
ATOM     21  C   UNL     1       1.927 -56.764  62.343  0.00  0.00    +0.066 C 
ATOM     22  C   UNL     1       1.994 -58.303  62.078  0.00  0.00    -0.064 C 
ATOM     23  N   UNL     1       2.882 -58.570  60.862  0.00  0.00    +0.379 N 
ATOM     24  C   UNL     1       2.994 -60.020  60.645  0.00  0.00    -0.096 C 
ATOM     25  H   UNL     1       3.901 -58.183  61.096  0.00  0.00    -0.082 HD
ATOM     26  C   UNL     1       2.375 -57.821  59.638  0.00  0.00    -0.064 C 
ATOM     27  C   UNL     1       2.284 -56.295  59.921  0.00  0.00    +0.066 C 
ENDBRANCH  19  20
ENDBRANCH  18  19
ENDBRANCH  14  15
ENDBRANCH  12  13
TORSDOF 6
ENDMDL
MODEL 3
REMARK VINA RESULT:      -8.1      2.586      3.782
REMARK  Name = C:\Users\Docking\Desktop\test protocol\1iep_ligandH.pdb
REMARK  8 active torsions:
REMARK  status: ('A' for Active; 'I' for Inactive)
REMARK    1  A    between atoms: _5  and  _11
REMARK    2  A    between atoms: _19  and  _21
REMARK    3  A    between atoms: _22  and  _66
REMARK    4  A    between atoms: _27  and  _30
REMARK    5  A    between atoms: _32  and  _33
REMARK    6  A    between atoms: _38  and  _43
REMARK    7  A    between atoms: _43  and  _46
REMARK    8  A    between atoms: _53  and  _55
REMARK                            x       y       z     vdW  Elec       q    Type
REMARK                         _______ _______ _______ _____ _____    ______ ____
ROOT
ATOM     10  C   UNL     1       9.805 -19.065  67.550  0.00  0.00    +0.038 A 
ATOM     11  C   UNL     1      10.309 -19.940  68.546  0.00  0.00    +0.047 A 
ATOM     12  C   UNL     1      11.480 -19.587  69.335  0.00  0.00    +0.035 A 
ATOM     32  C   UNL     1      12.111 -18.334  69.083  0.00  0.00    +0.024 A 
ATOM     33  C   UNL     1      11.613 -17.434  68.074  0.00  0.00    +0.007 A 
ATOM     34  C   UNL     1      10.460 -17.777  67.291  0.00  0.00    -0.029 A 
ATOM     35  C   UNL     1       9.973 -16.776  66.218  0.00  0.00    +0.045 C 
ENDROOT
BRANCH  10   9
ATOM      4  C   UNL     1       5.053 -19.405  66.968  0.00  0.00    +0.077 A 
ATOM      5  C   UNL     1       4.794 -18.779  68.232  0.00  0.00    +0.048 A 
ATOM      6  C   UNL     1       5.911 -18.391  69.005  0.00  0.00    +0.116 A 
ATOM      7  N   UNL     1       7.188 -18.617  68.538  0.00  0.00    -0.223 NA
ATOM      8  C   UNL     1       7.403 -19.225  67.315  0.00  0.00    +0.220 A 
ATOM      9  N   UNL     1       8.678 -19.455  66.822  0.00  0.00    -0.283 N 
ATOM     36  H   UNL     1       8.795 -19.913  65.919  0.00  0.00    +0.155 HD
ATOM     37  N   UNL     1       6.352 -19.606  66.559  0.00  0.00    -0.214 NA
BRANCH   4   3
ATOM      1  C   UNL     1       3.102 -21.353  64.193  0.00  0.00    +0.020 A 
ATOM      2  C   UNL     1       4.174 -20.943  65.070  0.00  0.00    +0.013 A 
ATOM      3  C   UNL     1       3.977 -19.869  66.036  0.00  0.00    +0.019 A 
ATOM     38  C   UNL     1       2.673 -19.226  66.089  0.00  0.00    +0.120 A 
ATOM     39  N   UNL     1       1.659 -19.641  65.231  0.00  0.00    -0.263 NA
ATOM     40  C   UNL     1       1.838 -20.672  64.296  0.00  0.00    +0.111 A 
ENDBRANCH   4   3
ENDBRANCH  10   9
BRANCH  12  13
ATOM     13  N   UNL     1      12.042 -20.438  70.354  0.00  0.00    -0.281 N 
ATOM     14  C   UNL     1      12.160 -20.179  71.710  0.00  0.00    +0.248 C 
ATOM     30  O   UNL     1      11.994 -19.081  72.220  0.00  0.00    -0.270 OA
ATOM     31  H   UNL     1      12.395 -21.341  70.038  0.00  0.00    +0.155 HD
BRANCH  14  15
ATOM     15  C   UNL     1      12.532 -21.297  72.629  0.00  0.00    +0.037 A 
ATOM     16  C   UNL     1      13.332 -21.058  73.832  0.00  0.00    +0.013 A 
ATOM     17  C   UNL     1      13.691 -22.157  74.693  0.00  0.00    +0.005 A 
ATOM     18  C   UNL     1      13.247 -23.507  74.353  0.00  0.00    -0.033 A 
ATOM     28  C   UNL     1      12.449 -23.715  73.156  0.00  0.00    +0.005 A 
ATOM     29  C   UNL     1      12.097 -22.641  72.310  0.00  0.00    +0.013 A 
BRANCH  18  19
ATOM     19  C   UNL     1      13.601 -24.742  75.203  0.00  0.00    +0.119 C 
BRANCH  19  20
ATOM     20  N   UNL     1      14.599 -25.698  74.636  0.00  0.00    -0.302 NA
ATOM     21  C   UNL     1      15.673 -24.985  73.810  0.00  0.00    +0.066 C 
ATOM     22  C   UNL     1      16.721 -25.998  73.244  0.00  0.00    -0.064 C 
ATOM     23  N   UNL     1      16.003 -27.054  72.402  0.00  0.00    +0.379 N 
ATOM     24  C   UNL     1      16.991 -27.974  71.821  0.00  0.00    -0.096 C 
ATOM     25  H   UNL     1      15.495 -26.528  71.561  0.00  0.00    -0.082 HD
ATOM     26  C   UNL     1      14.931 -27.766  73.216  0.00  0.00    -0.064 C 
ATOM     27  C   UNL     1      13.911 -26.748  73.798  0.00  0.00    +0.066 C 
ENDBRANCH  19  20
ENDBRANCH  18  19
ENDBRANCH  14  15
ENDBRANCH  12  13
TORSDOF 6
ENDMDL
MODEL 4
REMARK VINA RESULT:      -7.9      7.608     12.990
REMARK  Name = C:\Users\Docking\Desktop\test protocol\1iep_ligandH.pdb
REMARK  8 active torsions:
REMARK  status: ('A' for Active; 'I' for Inactive)
REMARK    1  A    between atoms: _5  and  _11
REMARK    2  A    between atoms: _19  and  _21
REMARK    3  A    between atoms: _22  and  _66
REMARK    4  A    between atoms: _27  and  _30
REMARK    5  A    between atoms: _32  and  _33
REMARK    6  A    between atoms: _38  and  _43
REMARK    7  A    between atoms: _43  and  _46
REMARK    8  A    between atoms: _53  and  _55
REMARK                            x       y       z     vdW  Elec       q    Type
REMARK                         _______ _______ _______ _____ _____    ______ ____
ROOT
ATOM     10  C   UNL     1       6.904 -15.197  67.528  0.00  0.00    +0.038 A 
ATOM     11  C   UNL     1       6.322 -14.136  68.267  0.00  0.00    +0.047 A 
ATOM     12  C   UNL     1       7.132 -13.285  69.125  0.00  0.00    +0.035 A 
ATOM     32  C   UNL     1       8.531 -13.542  69.205  0.00  0.00    +0.024 A 
ATOM     33  C   UNL     1       9.139 -14.617  68.461  0.00  0.00    +0.007 A 
ATOM     34  C   UNL     1       8.345 -15.461  67.615  0.00  0.00    -0.029 A 
ATOM     35  C   UNL     1       9.049 -16.604  66.845  0.00  0.00    +0.045 C 
ENDROOT
BRANCH  10   9
ATOM      4  C   UNL     1       3.937 -18.909  66.847  0.00  0.00    +0.077 A 
ATOM      5  C   UNL     1       4.061 -19.334  68.211  0.00  0.00    +0.048 A 
ATOM      6  C   UNL     1       4.904 -18.575  69.054  0.00  0.00    +0.116 A 
ATOM      7  N   UNL     1       5.568 -17.474  68.558  0.00  0.00    -0.223 NA
ATOM      8  C   UNL     1       5.427 -17.091  67.237  0.00  0.00    +0.220 A 
ATOM      9  N   UNL     1       6.079 -15.983  66.719  0.00  0.00    -0.283 N 
ATOM     36  H   UNL     1       5.956 -15.738  65.737  0.00  0.00    +0.155 HD
ATOM     37  N   UNL     1       4.630 -17.801  66.411  0.00  0.00    -0.214 NA
BRANCH   4   3
ATOM      1  C   UNL     1       2.621 -21.473  64.203  0.00  0.00    +0.020 A 
ATOM      2  C   UNL     1       3.485 -20.840  65.173  0.00  0.00    +0.013 A 
ATOM      3  C   UNL     1       3.082 -19.606  65.835  0.00  0.00    +0.019 A 
ATOM     38  C   UNL     1       1.789 -19.034  65.491  0.00  0.00    +0.120 A 
ATOM     39  N   UNL     1       0.979 -19.666  64.552  0.00  0.00    -0.263 NA
ATOM     40  C   UNL     1       1.357 -20.853  63.907  0.00  0.00    +0.111 A 
ENDBRANCH   4   3
ENDBRANCH  10   9
BRANCH  12  13
ATOM     13  N   UNL     1       6.596 -12.197  69.906  0.00  0.00    -0.281 N 
ATOM     14  C   UNL     1       5.903 -12.269  71.103  0.00  0.00    +0.248 C 
ATOM     30  O   UNL     1       5.450 -13.299  71.579  0.00  0.00    -0.270 OA
ATOM     31  H   UNL     1       6.746 -11.261  69.530  0.00  0.00    +0.155 HD
BRANCH  14  15
ATOM     15  C   UNL     1       5.666 -11.012  71.876  0.00  0.00    +0.037 A 
ATOM     16  C   UNL     1       6.740 -10.379  72.646  0.00  0.00    +0.013 A 
ATOM     17  C   UNL     1       6.480  -9.176  73.396  0.00  0.00    +0.005 A 
ATOM     18  C   UNL     1       5.138  -8.598  73.380  0.00  0.00    -0.033 A 
ATOM     28  C   UNL     1       4.093  -9.243  72.604  0.00  0.00    +0.005 A 
ATOM     29  C   UNL     1       4.343 -10.423  71.868  0.00  0.00    +0.013 A 
BRANCH  18  19
ATOM     19  C   UNL     1       4.765  -7.328  74.169  0.00  0.00    +0.119 C 
BRANCH  19  20
ATOM     20  N   UNL     1       5.421  -6.051  73.758  0.00  0.00    -0.302 NA
ATOM     21  C   UNL     1       6.364  -5.516  74.839  0.00  0.00    +0.066 C 
ATOM     22  C   UNL     1       7.058  -4.191  74.384  0.00  0.00    -0.064 C 
ATOM     23  N   UNL     1       5.990  -3.153  74.035  0.00  0.00    +0.379 N 
ATOM     24  C   UNL     1       6.640  -1.888  73.662  0.00  0.00    -0.096 C 
ATOM     25  H   UNL     1       5.388  -2.966  74.954  0.00  0.00    -0.082 HD
ATOM     26  C   UNL     1       5.046  -3.678  72.962  0.00  0.00    -0.064 C 
ATOM     27  C   UNL     1       4.384  -5.010  73.413  0.00  0.00    +0.066 C 
ENDBRANCH  19  20
ENDBRANCH  18  19
ENDBRANCH  14  15
ENDBRANCH  12  13
TORSDOF 6
ENDMDL
MODEL 5
REMARK VINA RESULT:      -7.8     33.669     35.920
REMARK  Name = C:\Users\Docking\Desktop\test protocol\1iep_ligandH.pdb
REMARK  8 active torsions:
REMARK  status: ('A' for Active; 'I' for Inactive)
REMARK    1  A    between atoms: _5  and  _11
REMARK    2  A    between atoms: _19  and  _21
REMARK    3  A    between atoms: _22  and  _66
REMARK    4  A    between atoms: _27  and  _30
REMARK    5  A    between atoms: _32  and  _33
REMARK    6  A    between atoms: _38  and  _43
REMARK    7  A    between atoms: _43  and  _46
REMARK    8  A    between atoms: _53  and  _55
REMARK                            x       y       z     vdW  Elec       q    Type
REMARK                         _______ _______ _______ _____ _____    ______ ____
ROOT
ATOM     10  C   UNL     1      29.726 -42.428  51.583  0.00  0.00    +0.038 A 
ATOM     11  C   UNL     1      29.973 -42.731  52.946  0.00  0.00    +0.047 A 
ATOM     12  C   UNL     1      30.322 -44.080  53.366  0.00  0.00    +0.035 A 
ATOM     32  C   UNL     1      30.412 -45.095  52.369  0.00  0.00    +0.024 A 
ATOM     33  C   UNL     1      30.162 -44.804  50.979  0.00  0.00    +0.007 A 
ATOM     34  C   UNL     1      29.816 -43.476  50.560  0.00  0.00    -0.029 A 
ATOM     35  C   UNL     1      29.552 -43.223  49.057  0.00  0.00    +0.045 C 
ENDROOT
BRANCH  10   9
ATOM      4  C   UNL     1      30.894 -38.032  50.048  0.00  0.00    +0.077 A 
ATOM      5  C   UNL     1      32.285 -38.371  49.954  0.00  0.00    +0.048 A 
ATOM      6  C   UNL     1      32.659 -39.684  50.317  0.00  0.00    +0.116 A 
ATOM      7  N   UNL     1      31.705 -40.584  50.741  0.00  0.00    -0.223 NA
ATOM      8  C   UNL     1      30.372 -40.225  50.821  0.00  0.00    +0.220 A 
ATOM      9  N   UNL     1      29.395 -41.116  51.237  0.00  0.00    -0.283 N 
ATOM     36  H   UNL     1      28.423 -40.810  51.290  0.00  0.00    +0.155 HD
ATOM     37  N   UNL     1      29.989 -38.976  50.482  0.00  0.00    -0.214 NA
BRANCH   4   3
ATOM      1  C   UNL     1      28.434 -35.109  49.211  0.00  0.00    +0.020 A 
ATOM      2  C   UNL     1      28.915 -36.428  49.551  0.00  0.00    +0.013 A 
ATOM      3  C   UNL     1      30.342 -36.686  49.697  0.00  0.00    +0.019 A 
ATOM     38  C   UNL     1      31.263 -35.578  49.492  0.00  0.00    +0.120 A 
ATOM     39  N   UNL     1      30.771 -34.319  49.164  0.00  0.00    -0.263 NA
ATOM     40  C   UNL     1      29.400 -34.059  49.019  0.00  0.00    +0.111 A 
ENDBRANCH   4   3
ENDBRANCH  10   9
BRANCH  12  13
ATOM     13  N   UNL     1      30.576 -44.449  54.736  0.00  0.00    -0.281 N 
ATOM     14  C   UNL     1      29.699 -45.025  55.640  0.00  0.00    +0.248 C 
ATOM     30  O   UNL     1      28.492 -45.115  55.470  0.00  0.00    -0.270 OA
ATOM     31  H   UNL     1      31.518 -44.263  55.082  0.00  0.00    +0.155 HD
BRANCH  14  15
ATOM     15  C   UNL     1      30.238 -45.567  56.924  0.00  0.00    +0.037 A 
ATOM     16  C   UNL     1      30.922 -46.862  56.975  0.00  0.00    +0.013 A 
ATOM     17  C   UNL     1      31.417 -47.369  58.230  0.00  0.00    +0.005 A 
ATOM     18  C   UNL     1      31.231 -46.580  59.445  0.00  0.00    -0.033 A 
ATOM     28  C   UNL     1      30.554 -45.296  59.365  0.00  0.00    +0.005 A 
ATOM     29  C   UNL     1      30.066 -44.796  58.137  0.00  0.00    +0.013 A 
BRANCH  18  19
ATOM     19  C   UNL     1      31.708 -47.053  60.831  0.00  0.00    +0.119 C 
BRANCH  19  20
ATOM     20  N   UNL     1      30.829 -48.009  61.568  0.00  0.00    -0.302 NA
ATOM     21  C   UNL     1      30.679 -47.631  63.044  0.00  0.00    +0.066 C 
ATOM     22  C   UNL     1      29.738 -48.628  63.795  0.00  0.00    -0.064 C 
ATOM     23  N   UNL     1      30.287 -50.049  63.652  0.00  0.00    +0.379 N 
ATOM     24  C   UNL     1      29.436 -50.982  64.405  0.00  0.00    -0.096 C 
ATOM     25  H   UNL     1      31.301 -50.067  64.115  0.00  0.00    -0.082 HD
ATOM     26  C   UNL     1      30.441 -50.432  62.187  0.00  0.00    -0.064 C 
ATOM     27  C   UNL     1      31.355 -49.417  61.444  0.00  0.00    +0.066 C 
ENDBRANCH  19  20
ENDBRANCH  18  19
ENDBRANCH  14  15
ENDBRANCH  12  13
TORSDOF 6
ENDMDL
