MODEL 1
REMARK VINA RESULT:      -8.4      0.000      0.000
REMARK  Name = C:\Users\Docking\Desktop\test protocol\1iep_ligandH.pdb
REMARK  8 active torsions:
REMARK  status: ('A' for Active; 'I' for Inactive)
REMARK    1  A    between atoms: _5  and  _11
REMARK    2  A    between atoms: _19  and  _21
REMARK    3  A    between atoms: _22  and  _66
REMARK    4  A    between atoms: _27  and  _30
REMARK    5  A    between atoms: _32  and  _33
REMARK    6  A    between atoms: _38  and  _43
REMARK    7  A    between atoms: _43  and  _46
REMARK    8  A    between atoms: _53  and  _55
REMARK                            x       y       z     vdW  Elec       q    Type
REMARK                         _______ _______ _______ _____ _____    ______ ____
ROOT
ATOM     10  C   UNL     1      12.746 -15.452  43.673  0.00  0.00    +0.038 A 
ATOM     11  C   UNL     1      12.396 -14.455  44.619  0.00  0.00    +0.047 A 
ATOM     12  C   UNL     1      13.349 -13.999  45.619  0.00  0.00    +0.035 A 
ATOM     32  C   UNL     1      14.652 -14.578  45.624  0.00  0.00    +0.024 A 
ATOM     33  C   UNL     1      15.024 -15.593  44.670  0.00  0.00    +0.007 A 
ATOM     34  C   UNL     1      14.087 -16.049  43.683  0.00  0.00    -0.029 A 
ATOM     35  C   UNL     1      14.538 -17.144  42.689  0.00  0.00    +0.045 C 
ENDROOT
BRANCH  10   9
ATOM      4  C   UNL     1      10.870 -15.400  39.255  0.00  0.00    +0.077 A 
ATOM      5  C   UNL     1      11.860 -14.476  38.782  0.00  0.00    +0.048 A 
ATOM      6  C   UNL     1      12.830 -14.033  39.709  0.00  0.00    +0.116 A 
ATOM      7  N   UNL     1      12.803 -14.487  41.009  0.00  0.00    -0.223 NA
ATOM      8  C   UNL     1      11.833 -15.377  41.434  0.00  0.00    +0.220 A 
ATOM      9  N   UNL     1      11.791 -15.852  42.735  0.00  0.00    -0.283 N 
ATOM     36  H   UNL     1      11.055 -16.502  43.011  0.00  0.00    +0.155 HD
ATOM     37  N   UNL     1      10.894 -15.813  40.568  0.00  0.00    -0.214 NA
BRANCH   4   3
ATOM      1  C   UNL     1       8.030 -15.763  36.590  0.00  0.00    +0.020 A 
ATOM      2  C   UNL     1       9.074 -15.171  37.395  0.00  0.00    +0.013 A 
ATOM      3  C   UNL     1       9.781 -15.962  38.395  0.00  0.00    +0.019 A 
ATOM     38  C   UNL     1       9.405 -17.358  38.556  0.00  0.00    +0.120 A 
ATOM     39  N   UNL     1       8.394 -17.900  37.768  0.00  0.00    -0.263 NA
ATOM     40  C   UNL     1       7.706 -17.149  36.803  0.00  0.00    +0.111 A 
ENDBRANCH   4   3
ENDBRANCH  10   9
BRANCH  12  13
ATOM     13  N   UNL     1      13.049 -12.996  46.610  0.00  0.00    -0.281 N 
ATOM     14  C   UNL     1      13.213 -11.624  46.511  0.00  0.00    +0.248 C 
ATOM     30  O   UNL     1      13.846 -11.066  45.627  0.00  0.00    -0.270 OA
ATOM     31  H   UNL     1      12.669 -13.339  47.493  0.00  0.00    +0.155 HD
BRANCH  14  15
ATOM     15  C   UNL     1      12.596 -10.746  47.551  0.00  0.00    +0.037 A 
ATOM     16  C   UNL     1      13.420  -9.893  48.411  0.00  0.00    +0.013 A 
ATOM     17  C   UNL     1      12.800  -9.069  49.418  0.00  0.00    +0.005 A 
ATOM     18  C   UNL     1      11.347  -9.092  49.569  0.00  0.00    -0.033 A 
ATOM     28  C   UNL     1      10.553  -9.943  48.698  0.00  0.00    +0.005 A 
ATOM     29  C   UNL     1      11.157 -10.753  47.711  0.00  0.00    +0.013 A 
BRANCH  18  19
ATOM     19  C   UNL     1      10.603  -8.260  50.630  0.00  0.00    +0.119 C 
BRANCH  19  20
ATOM     20  N   UNL     1      11.425  -7.637  51.710  0.00  0.00    -0.302 NA
ATOM     21  C   UNL     1      10.735  -7.716  53.075  0.00  0.00    +0.066 C 
ATOM     22  C   UNL     1      11.618  -7.079  54.197  0.00  0.00    -0.064 C 
ATOM     23  N   UNL     1      11.933  -5.627  53.832  0.00  0.00    +0.379 N 
ATOM     24  C   UNL     1      12.715  -5.009  54.913  0.00  0.00    -0.096 C 
ATOM     25  H   UNL     1      10.965  -5.080  53.759  0.00  0.00    -0.082 HD
ATOM     26  C   UNL     1      12.617  -5.540  52.475  0.00  0.00    -0.064 C 
ATOM     27  C   UNL     1      11.744  -6.201  51.373  0.00  0.00    +0.066 C 
ENDBRANCH  19  20
ENDBRANCH  18  19
ENDBRANCH  14  15
ENDBRANCH  12  13
TORSDOF 6
ENDMDL
MODEL 2
REMARK VINA RESULT:      -8.4     22.639     29.623
REMARK  Name = C:\Users\Docking\Desktop\test protocol\1iep_ligandH.pdb
REMARK  8 active torsions:
REMARK  status: ('A' for Active; 'I' for Inactive)
REMARK    1  A    between atoms: _5  and  _11
REMARK    2  A    between atoms: _19  and  _21
REMARK    3  A    between atoms: _22  and  _66
REMARK    4  A    between atoms: _27  and  _30
REMARK    5  A    between atoms: _32  and  _33
REMARK    6  A    between atoms: _38  and  _43
REMARK    7  A    between atoms: _43  and  _46
REMARK    8  A    between atoms: _53  and  _55
REMARK                            x       y       z     vdW  Elec       q    Type
REMARK                         _______ _______ _______ _____ _____    ______ ____
ROOT
ATOM     10  C   UNL     1       6.826  -9.789  72.842  0.00  0.00    +0.038 A 
ATOM     11  C   UNL     1       6.227 -10.855  72.124  0.00  0.00    +0.047 A 
ATOM     12  C   UNL     1       6.823 -11.367  70.900  0.00  0.00    +0.035 A 
ATOM     32  C   UNL     1       8.033 -10.772  70.438  0.00  0.00    +0.024 A 
ATOM     33  C   UNL     1       8.655  -9.687  71.155  0.00  0.00    +0.007 A 
ATOM     34  C   UNL     1       8.070  -9.176  72.361  0.00  0.00    -0.029 A 
ATOM     35  C   UNL     1       8.777  -8.007  73.085  0.00  0.00    +0.045 C 
ENDROOT
BRANCH  10   9
ATOM      4  C   UNL     1       3.802  -6.889  75.184  0.00  0.00    +0.077 A 
ATOM      5  C   UNL     1       3.438  -6.199  73.980  0.00  0.00    +0.048 A 
ATOM      6  C   UNL     1       4.058  -6.616  72.780  0.00  0.00    +0.116 A 
ATOM      7  N   UNL     1       4.971  -7.648  72.796  0.00  0.00    -0.223 NA
ATOM      8  C   UNL     1       5.300  -8.292  73.974  0.00  0.00    +0.220 A 
ATOM      9  N   UNL     1       6.210  -9.337  74.011  0.00  0.00    -0.283 N 
ATOM     36  H   UNL     1       6.432  -9.781  74.902  0.00  0.00    +0.155 HD
ATOM     37  N   UNL     1       4.724  -7.911  75.133  0.00  0.00    -0.214 NA
BRANCH   4   3
ATOM      1  C   UNL     1       2.229  -7.224  78.750  0.00  0.00    +0.020 A 
ATOM      2  C   UNL     1       2.772  -7.589  77.461  0.00  0.00    +0.013 A 
ATOM      3  C   UNL     1       3.232  -6.567  76.530  0.00  0.00    +0.019 A 
ATOM     38  C   UNL     1       3.129  -5.173  76.936  0.00  0.00    +0.120 A 
ATOM     39  N   UNL     1       2.601  -4.851  78.183  0.00  0.00    -0.263 NA
ATOM     40  C   UNL     1       2.153  -5.827  79.087  0.00  0.00    +0.111 A 
ENDBRANCH   4   3
ENDBRANCH  10   9
BRANCH  12  13
ATOM     13  N   UNL     1       6.256 -12.442  70.124  0.00  0.00    -0.281 N 
ATOM     14  C   UNL     1       5.372 -12.351  69.061  0.00  0.00    +0.248 C 
ATOM     30  O   UNL     1       4.767 -11.336  68.751  0.00  0.00    -0.270 OA
ATOM     31  H   UNL     1       6.540 -13.385  70.391  0.00  0.00    +0.155 HD
BRANCH  14  15
ATOM     15  C   UNL     1       5.113 -13.566  68.231  0.00  0.00    +0.037 A 
ATOM     16  C   UNL     1       3.749 -13.987  67.905  0.00  0.00    +0.013 A 
ATOM     17  C   UNL     1       3.526 -15.173  67.116  0.00  0.00    +0.005 A 
ATOM     18  C   UNL     1       4.674 -15.947  66.647  0.00  0.00    -0.033 A 
ATOM     28  C   UNL     1       6.017 -15.503  66.981  0.00  0.00    +0.005 A 
ATOM     29  C   UNL     1       6.239 -14.342  67.754  0.00  0.00    +0.013 A 
BRANCH  18  19
ATOM     19  C   UNL     1       4.530 -17.237  65.818  0.00  0.00    +0.119 C 
BRANCH  19  20
ATOM     20  N   UNL     1       3.150 -17.636  65.409  0.00  0.00    -0.302 NA
ATOM     21  C   UNL     1       2.998 -19.157  65.311  0.00  0.00    +0.066 C 
ATOM     22  C   UNL     1       1.543 -19.558  64.904  0.00  0.00    -0.064 C 
ATOM     23  N   UNL     1       1.187 -18.892  63.573  0.00  0.00    +0.379 N 
ATOM     24  C   UNL     1      -0.159 -19.313  63.158  0.00  0.00    -0.096 C 
ATOM     25  H   UNL     1       1.908 -19.260  62.807  0.00  0.00    -0.082 HD
ATOM     26  C   UNL     1       1.339 -17.380  63.660  0.00  0.00    -0.064 C 
ATOM     27  C   UNL     1       2.780 -16.993  64.095  0.00  0.00    +0.066 C 
ENDBRANCH  19  20
ENDBRANCH  18  19
ENDBRANCH  14  15
ENDBRANCH  12  13
TORSDOF 6
ENDMDL
MODEL 3
REMARK VINA RESULT:      -8.2     23.430     29.899
REMARK  Name = C:\Users\Docking\Desktop\test protocol\1iep_ligandH.pdb
REMARK  8 active torsions:
REMARK  status: ('A' for Active; 'I' for Inactive)
REMARK    1  A    between atoms: _5  and  _11
REMARK    2  A    between atoms: _19  and  _21
REMARK    3  A    between atoms: _22  and  _66
REMARK    4  A    between atoms: _27  and  _30
REMARK    5  A    between atoms: _32  and  _33
REMARK    6  A    between atoms: _38  and  _43
REMARK    7  A    between atoms: _43  and  _46
REMARK    8  A    between atoms: _53  and  _55
REMARK                            x       y       z     vdW  Elec       q    Type
REMARK                         _______ _______ _______ _____ _____    ______ ____
ROOT
ATOM     10  C   UNL     1       5.946  -8.107  73.150  0.00  0.00    +0.038 A 
ATOM     11  C   UNL     1       5.350  -8.802  72.066  0.00  0.00    +0.047 A 
ATOM     12  C   UNL     1       5.225 -10.251  72.079  0.00  0.00    +0.035 A 
ATOM     32  C   UNL     1       5.715 -10.961  73.214  0.00  0.00    +0.024 A 
ATOM     33  C   UNL     1       6.324 -10.271  74.324  0.00  0.00    +0.007 A 
ATOM     34  C   UNL     1       6.452  -8.842  74.315  0.00  0.00    -0.029 A 
ATOM     35  C   UNL     1       7.120  -8.155  75.529  0.00  0.00    +0.045 C 
ENDROOT
BRANCH  10   9
ATOM      4  C   UNL     1       4.330  -3.703  74.165  0.00  0.00    +0.077 A 
ATOM      5  C   UNL     1       3.187  -4.219  74.861  0.00  0.00    +0.048 A 
ATOM      6  C   UNL     1       3.048  -5.623  74.930  0.00  0.00    +0.116 A 
ATOM      7  N   UNL     1       3.988  -6.441  74.342  0.00  0.00    -0.223 NA
ATOM      8  C   UNL     1       5.078  -5.911  73.676  0.00  0.00    +0.220 A 
ATOM      9  N   UNL     1       6.040  -6.715  73.084  0.00  0.00    -0.283 N 
ATOM     36  H   UNL     1       6.826  -6.286  72.596  0.00  0.00    +0.155 HD
ATOM     37  N   UNL     1       5.233  -4.573  73.596  0.00  0.00    -0.214 NA
BRANCH   4   3
ATOM      1  C   UNL     1       4.104   0.194  74.418  0.00  0.00    +0.020 A 
ATOM      2  C   UNL     1       3.781  -1.203  74.597  0.00  0.00    +0.013 A 
ATOM      3  C   UNL     1       4.618  -2.242  74.010  0.00  0.00    +0.019 A 
ATOM     38  C   UNL     1       5.783  -1.831  73.242  0.00  0.00    +0.120 A 
ATOM     39  N   UNL     1       6.068  -0.478  73.085  0.00  0.00    -0.263 NA
ATOM     40  C   UNL     1       5.269   0.531  73.644  0.00  0.00    +0.111 A 
ENDBRANCH   4   3
ENDBRANCH  10   9
BRANCH  12  13
ATOM     13  N   UNL     1       4.637 -11.012  71.005  0.00  0.00    -0.281 N 
ATOM     14  C   UNL     1       5.244 -11.450  69.839  0.00  0.00    +0.248 C 
ATOM     30  O   UNL     1       6.336 -11.068  69.444  0.00  0.00    -0.270 OA
ATOM     31  H   UNL     1       3.653 -11.257  71.117  0.00  0.00    +0.155 HD
BRANCH  14  15
ATOM     15  C   UNL     1       4.530 -12.444  68.982  0.00  0.00    +0.037 A 
ATOM     16  C   UNL     1       3.081 -12.367  68.776  0.00  0.00    +0.013 A 
ATOM     17  C   UNL     1       2.414 -13.349  67.958  0.00  0.00    +0.005 A 
ATOM     18  C   UNL     1       3.197 -14.416  67.338  0.00  0.00    -0.033 A 
ATOM     28  C   UNL     1       4.633 -14.465  67.556  0.00  0.00    +0.005 A 
ATOM     29  C   UNL     1       5.290 -13.505  68.358  0.00  0.00    +0.013 A 
BRANCH  18  19
ATOM     19  C   UNL     1       2.566 -15.519  66.468  0.00  0.00    +0.119 C 
BRANCH  19  20
ATOM     20  N   UNL     1       3.292 -16.821  66.382  0.00  0.00    -0.302 NA
ATOM     21  C   UNL     1       3.016 -17.546  65.061  0.00  0.00    +0.066 C 
ATOM     22  C   UNL     1       3.801 -18.896  64.978  0.00  0.00    -0.064 C 
ATOM     23  N   UNL     1       3.421 -19.777  66.170  0.00  0.00    +0.379 N 
ATOM     24  C   UNL     1       4.113 -21.070  66.064  0.00  0.00    -0.096 C 
ATOM     25  H   UNL     1       2.325 -19.974  66.109  0.00  0.00    -0.082 HD
ATOM     26  C   UNL     1       3.689 -19.063  67.487  0.00  0.00    -0.064 C 
ATOM     27  C   UNL     1       2.928 -17.709  67.546  0.00  0.00    +0.066 C 
ENDBRANCH  19  20
ENDBRANCH  18  19
ENDBRANCH  14  15
ENDBRANCH  12  13
TORSDOF 6
ENDMDL
MODEL 4
REMARK VINA RESULT:      -8.2     45.516     48.966
REMARK  Name = C:\Users\Docking\Desktop\test protocol\1iep_ligandH.pdb
REMARK  8 active torsions:
REMARK  status: ('A' for Active; 'I' for Inactive)
REMARK    1  A    between atoms: _5  and  _11
REMARK    2  A    between atoms: _19  and  _21
REMARK    3  A    between atoms: _22  and  _66
REMARK    4  A    between atoms: _27  and  _30
REMARK    5  A    between atoms: _32  and  _33
REMARK    6  A    between atoms: _38  and  _43
REMARK    7  A    between atoms: _43  and  _46
REMARK    8  A    between atoms: _53  and  _55
REMARK                            x       y       z     vdW  Elec       q    Type
REMARK                         _______ _______ _______ _____ _____    ______ ____
ROOT
ATOM     10  C   UNL     1       0.262 -53.560  60.912  0.00  0.00    +0.038 A 
ATOM     11  C   UNL     1       0.610 -54.847  60.430  0.00  0.00    +0.047 A 
ATOM     12  C   UNL     1       1.608 -55.661  61.107  0.00  0.00    +0.035 A 
ATOM     32  C   UNL     1       2.230 -55.132  62.276  0.00  0.00    +0.024 A 
ATOM     33  C   UNL     1       1.889 -53.825  62.779  0.00  0.00    +0.007 A 
ATOM     34  C   UNL     1       0.908 -53.017  62.113  0.00  0.00    -0.029 A 
ATOM     35  C   UNL     1       0.587 -51.620  62.694  0.00  0.00    +0.045 C 
ENDROOT
BRANCH  10   9
ATOM      4  C   UNL     1      -1.042 -50.429  57.516  0.00  0.00    +0.077 A 
ATOM      5  C   UNL     1       0.315 -50.225  57.099  0.00  0.00    +0.048 A 
ATOM      6  C   UNL     1       1.320 -50.940  57.789  0.00  0.00    +0.116 A 
ATOM      7  N   UNL     1       0.981 -51.792  58.817  0.00  0.00    -0.223 NA
ATOM      8  C   UNL     1      -0.338 -51.964  59.196  0.00  0.00    +0.220 A 
ATOM      9  N   UNL     1      -0.702 -52.822  60.222  0.00  0.00    -0.283 N 
ATOM     36  H   UNL     1      -1.685 -52.915  60.476  0.00  0.00    +0.155 HD
ATOM     37  N   UNL     1      -1.316 -51.292  58.554  0.00  0.00    -0.214 NA
BRANCH   4   3
ATOM      1  C   UNL     1      -3.315 -47.782  55.747  0.00  0.00    +0.020 A 
ATOM      2  C   UNL     1      -2.153 -48.393  56.349  0.00  0.00    +0.013 A 
ATOM      3  C   UNL     1      -2.216 -49.748  56.883  0.00  0.00    +0.019 A 
ATOM     38  C   UNL     1      -3.480 -50.462  56.791  0.00  0.00    +0.120 A 
ATOM     39  N   UNL     1      -4.583 -49.848  56.207  0.00  0.00    -0.263 NA
ATOM     40  C   UNL     1      -4.535 -48.544  55.691  0.00  0.00    +0.111 A 
ENDBRANCH   4   3
ENDBRANCH  10   9
BRANCH  12  13
ATOM     13  N   UNL     1       2.007 -56.972  60.660  0.00  0.00    -0.281 N 
ATOM     14  C   UNL     1       1.707 -58.196  61.234  0.00  0.00    +0.248 C 
ATOM     30  O   UNL     1       1.224 -58.337  62.348  0.00  0.00    -0.270 OA
ATOM     31  H   UNL     1       2.581 -57.001  59.817  0.00  0.00    +0.155 HD
BRANCH  14  15
ATOM     15  C   UNL     1       1.999 -59.445  60.466  0.00  0.00    +0.037 A 
ATOM     16  C   UNL     1       3.376 -59.878  60.215  0.00  0.00    +0.013 A 
ATOM     17  C   UNL     1       3.629 -61.077  59.457  0.00  0.00    +0.005 A 
ATOM     18  C   UNL     1       2.502 -61.854  58.946  0.00  0.00    -0.033 A 
ATOM     28  C   UNL     1       1.146 -61.404  59.214  0.00  0.00    +0.005 A 
ATOM     29  C   UNL     1       0.894 -60.228  59.956  0.00  0.00    +0.013 A 
BRANCH  18  19
ATOM     19  C   UNL     1       2.679 -63.135  58.109  0.00  0.00    +0.119 C 
BRANCH  19  20
ATOM     20  N   UNL     1       3.115 -64.367  58.831  0.00  0.00    -0.302 NA
ATOM     21  C   UNL     1       4.486 -64.857  58.355  0.00  0.00    +0.066 C 
ATOM     22  C   UNL     1       4.937 -66.134  59.136  0.00  0.00    -0.064 C 
ATOM     23  N   UNL     1       3.883 -67.229  58.968  0.00  0.00    +0.379 N 
ATOM     24  C   UNL     1       4.331 -68.451  59.653  0.00  0.00    -0.096 C 
ATOM     25  H   UNL     1       3.806 -67.460  57.880  0.00  0.00    -0.082 HD
ATOM     26  C   UNL     1       2.516 -66.750  59.436  0.00  0.00    -0.064 C 
ATOM     27  C   UNL     1       2.090 -65.464  58.674  0.00  0.00    +0.066 C 
ENDBRANCH  19  20
ENDBRANCH  18  19
ENDBRANCH  14  15
ENDBRANCH  12  13
TORSDOF 6
ENDMDL
MODEL 5
REMARK VINA RESULT:      -8.2     22.291     27.588
REMARK  Name = C:\Users\Docking\Desktop\test protocol\1iep_ligandH.pdb
REMARK  8 active torsions:
REMARK  status: ('A' for Active; 'I' for Inactive)
REMARK    1  A    between atoms: _5  and  _11
REMARK    2  A    between atoms: _19  and  _21
REMARK    3  A    between atoms: _22  and  _66
REMARK    4  A    between atoms: _27  and  _30
REMARK    5  A    between atoms: _32  and  _33
REMARK    6  A    between atoms: _38  and  _43
REMARK    7  A    between atoms: _43  and  _46
REMARK    8  A    between atoms: _53  and  _55
REMARK                            x       y       z     vdW  Elec       q    Type
REMARK                         _______ _______ _______ _____ _____    ______ ____
ROOT
ATOM     10  C   UNL     1      10.593 -17.831  67.815  0.00  0.00    +0.038 A 
ATOM     11  C   UNL     1      10.862 -18.824  68.791  0.00  0.00    +0.047 A 
ATOM     12  C   UNL     1      12.058 -19.649  68.716  0.00  0.00    +0.035 A 
ATOM     32  C   UNL     1      12.960 -19.434  67.634  0.00  0.00    +0.024 A 
ATOM     33  C   UNL     1      12.701 -18.430  66.631  0.00  0.00    +0.007 A 
ATOM     34  C   UNL     1      11.522 -17.615  66.699  0.00  0.00    -0.029 A 
ATOM     35  C   UNL     1      11.293 -16.558  65.594  0.00  0.00    +0.045 C 
ENDROOT
BRANCH  10   9
ATOM      4  C   UNL     1       6.084 -16.759  66.567  0.00  0.00    +0.077 A 
ATOM      5  C   UNL     1       6.052 -17.791  65.571  0.00  0.00    +0.048 A 
ATOM      6  C   UNL     1       7.219 -18.570  65.406  0.00  0.00    +0.116 A 
ATOM      7  N   UNL     1       8.329 -18.328  66.185  0.00  0.00    -0.223 NA
ATOM      8  C   UNL     1       8.327 -17.324  67.136  0.00  0.00    +0.220 A 
ATOM      9  N   UNL     1       9.430 -17.067  67.936  0.00  0.00    -0.283 N 
ATOM     36  H   UNL     1       9.391 -16.313  68.621  0.00  0.00    +0.155 HD
ATOM     37  N   UNL     1       7.226 -16.565  67.312  0.00  0.00    -0.214 NA
BRANCH   4   3
ATOM      1  C   UNL     1       3.896 -13.832  67.961  0.00  0.00    +0.020 A 
ATOM      2  C   UNL     1       5.043 -14.673  67.708  0.00  0.00    +0.013 A 
ATOM      3  C   UNL     1       4.928 -15.854  66.862  0.00  0.00    +0.019 A 
ATOM     38  C   UNL     1       3.629 -16.159  66.282  0.00  0.00    +0.120 A 
ATOM     39  N   UNL     1       2.541 -15.331  66.545  0.00  0.00    -0.263 NA
ATOM     40  C   UNL     1       2.639 -14.192  67.358  0.00  0.00    +0.111 A 
ENDBRANCH   4   3
ENDBRANCH  10   9
BRANCH  12  13
ATOM     13  N   UNL     1      12.380 -20.677  69.674  0.00  0.00    -0.281 N 
ATOM     14  C   UNL     1      13.092 -20.548  70.855  0.00  0.00    +0.248 C 
ATOM     30  O   UNL     1      13.747 -19.564  71.163  0.00  0.00    -0.270 OA
ATOM     31  H   UNL     1      12.042 -21.615  69.454  0.00  0.00    +0.155 HD
BRANCH  14  15
ATOM     15  C   UNL     1      13.087 -21.683  71.829  0.00  0.00    +0.037 A 
ATOM     16  C   UNL     1      14.134 -21.815  72.846  0.00  0.00    +0.013 A 
ATOM     17  C   UNL     1      14.115 -22.928  73.761  0.00  0.00    +0.005 A 
ATOM     18  C   UNL     1      13.045 -23.918  73.664  0.00  0.00    -0.033 A 
ATOM     28  C   UNL     1      12.017 -23.759  72.649  0.00  0.00    +0.005 A 
ATOM     29  C   UNL     1      12.032 -22.670  71.749  0.00  0.00    +0.013 A 
BRANCH  18  19
ATOM     19  C   UNL     1      12.957 -25.149  74.586  0.00  0.00    +0.119 C 
BRANCH  19  20
ATOM     20  N   UNL     1      14.086 -26.125  74.531  0.00  0.00    -0.302 NA
ATOM     21  C   UNL     1      13.985 -27.053  73.318  0.00  0.00    +0.066 C 
ATOM     22  C   UNL     1      15.186 -28.053  73.264  0.00  0.00    -0.064 C 
ATOM     23  N   UNL     1      15.231 -28.862  74.561  0.00  0.00    +0.379 N 
ATOM     24  C   UNL     1      16.323 -29.843  74.490  0.00  0.00    -0.096 C 
ATOM     25  H   UNL     1      14.273 -29.427  74.641  0.00  0.00    -0.082 HD
ATOM     26  C   UNL     1      15.329 -27.946  75.774  0.00  0.00    -0.064 C 
ATOM     27  C   UNL     1      14.147 -26.937  75.802  0.00  0.00    +0.066 C 
ENDBRANCH  19  20
ENDBRANCH  18  19
ENDBRANCH  14  15
ENDBRANCH  12  13
TORSDOF 6
ENDMDL
