MODEL 1
REMARK VINA RESULT:     -10.0      0.000      0.000
REMARK  Name = C:\Users\Docking\Desktop\test protocol\1iep_ligandH.pdb
REMARK  8 active torsions:
REMARK  status: ('A' for Active; 'I' for Inactive)
REMARK    1  A    between atoms: _5  and  _11
REMARK    2  A    between atoms: _19  and  _21
REMARK    3  A    between atoms: _22  and  _66
REMARK    4  A    between atoms: _27  and  _30
REMARK    5  A    between atoms: _32  and  _33
REMARK    6  A    between atoms: _38  and  _43
REMARK    7  A    between atoms: _43  and  _46
REMARK    8  A    between atoms: _53  and  _55
REMARK                            x       y       z     vdW  Elec       q    Type
REMARK                         _______ _______ _______ _____ _____    ______ ____
ROOT
ATOM     10  C   UNL     1      15.549  22.147  14.678  0.00  0.00    +0.038 A 
ATOM     11  C   UNL     1      16.573  23.112  14.854  0.00  0.00    +0.047 A 
ATOM     12  C   UNL     1      17.947  22.829  14.471  0.00  0.00    +0.035 A 
ATOM     32  C   UNL     1      18.243  21.553  13.910  0.00  0.00    +0.024 A 
ATOM     33  C   UNL     1      17.215  20.559  13.725  0.00  0.00    +0.007 A 
ATOM     34  C   UNL     1      15.857  20.832  14.103  0.00  0.00    -0.029 A 
ATOM     35  C   UNL     1      14.797  19.727  13.888  0.00  0.00    +0.045 C 
ENDROOT
BRANCH  10   9
ATOM      4  C   UNL     1      12.345  23.664  17.914  0.00  0.00    +0.077 A 
ATOM      5  C   UNL     1      13.347  23.794  18.932  0.00  0.00    +0.048 A 
ATOM      6  C   UNL     1      14.674  23.454  18.585  0.00  0.00    +0.116 A 
ATOM      7  N   UNL     1      14.965  23.017  17.310  0.00  0.00    -0.223 NA
ATOM      8  C   UNL     1      13.974  22.901  16.353  0.00  0.00    +0.220 A 
ATOM      9  N   UNL     1      14.246  22.472  15.063  0.00  0.00    -0.283 N 
ATOM     36  H   UNL     1      13.486  22.393  14.387  0.00  0.00    +0.155 HD
ATOM     37  N   UNL     1      12.700  23.219  16.660  0.00  0.00    -0.214 NA
BRANCH   4   3
ATOM      1  C   UNL     1       8.448  23.391  18.111  0.00  0.00    +0.020 A 
ATOM      2  C   UNL     1       9.829  23.028  17.889  0.00  0.00    +0.013 A 
ATOM      3  C   UNL     1      10.899  23.988  18.127  0.00  0.00    +0.019 A 
ATOM     38  C   UNL     1      10.536  25.318  18.593  0.00  0.00    +0.120 A 
ATOM     39  N   UNL     1       9.197  25.640  18.796  0.00  0.00    -0.263 NA
ATOM     40  C   UNL     1       8.159  24.725  18.569  0.00  0.00    +0.111 A 
ENDBRANCH   4   3
ENDBRANCH  10   9
BRANCH  12  13
ATOM     13  N   UNL     1      19.031  23.767  14.633  0.00  0.00    -0.281 N 
ATOM     14  C   UNL     1      19.541  24.649  13.695  0.00  0.00    +0.248 C 
ATOM     30  O   UNL     1      19.281  24.615  12.501  0.00  0.00    -0.270 OA
ATOM     31  H   UNL     1      19.475  23.782  15.551  0.00  0.00    +0.155 HD
BRANCH  14  15
ATOM     15  C   UNL     1      20.488  25.714  14.145  0.00  0.00    +0.037 A 
ATOM     16  C   UNL     1      20.034  27.090  14.366  0.00  0.00    +0.013 A 
ATOM     17  C   UNL     1      20.972  28.102  14.784  0.00  0.00    +0.005 A 
ATOM     18  C   UNL     1      22.373  27.741  14.986  0.00  0.00    -0.033 A 
ATOM     28  C   UNL     1      22.795  26.367  14.764  0.00  0.00    +0.005 A 
ATOM     29  C   UNL     1      21.879  25.373  14.353  0.00  0.00    +0.013 A 
BRANCH  18  19
ATOM     19  C   UNL     1      23.447  28.760  15.410  0.00  0.00    +0.119 C 
BRANCH  19  20
ATOM     20  N   UNL     1      24.814  28.232  15.701  0.00  0.00    -0.302 NA
ATOM     21  C   UNL     1      25.035  28.006  17.199  0.00  0.00    +0.066 C 
ATOM     22  C   UNL     1      26.462  27.432  17.483  0.00  0.00    -0.064 C 
ATOM     23  N   UNL     1      27.514  28.388  16.918  0.00  0.00    +0.379 N 
ATOM     24  C   UNL     1      28.858  27.881  17.234  0.00  0.00    -0.096 C 
ATOM     25  H   UNL     1      27.392  29.368  17.435  0.00  0.00    -0.082 HD
ATOM     26  C   UNL     1      27.299  28.621  15.429  0.00  0.00    -0.064 C 
ATOM     27  C   UNL     1      25.869  29.163  15.155  0.00  0.00    +0.066 C 
ENDBRANCH  19  20
ENDBRANCH  18  19
ENDBRANCH  14  15
ENDBRANCH  12  13
TORSDOF 6
ENDMDL
MODEL 2
REMARK VINA RESULT:      -9.7      2.003     12.410
REMARK  Name = C:\Users\Docking\Desktop\test protocol\1iep_ligandH.pdb
REMARK  8 active torsions:
REMARK  status: ('A' for Active; 'I' for Inactive)
REMARK    1  A    between atoms: _5  and  _11
REMARK    2  A    between atoms: _19  and  _21
REMARK    3  A    between atoms: _22  and  _66
REMARK    4  A    between atoms: _27  and  _30
REMARK    5  A    between atoms: _32  and  _33
REMARK    6  A    between atoms: _38  and  _43
REMARK    7  A    between atoms: _43  and  _46
REMARK    8  A    between atoms: _53  and  _55
REMARK                            x       y       z     vdW  Elec       q    Type
REMARK                         _______ _______ _______ _____ _____    ______ ____
ROOT
ATOM     10  C   UNL     1      19.858  23.330  14.153  0.00  0.00    +0.038 A 
ATOM     11  C   UNL     1      18.709  23.541  14.957  0.00  0.00    +0.047 A 
ATOM     12  C   UNL     1      17.433  22.927  14.623  0.00  0.00    +0.035 A 
ATOM     32  C   UNL     1      17.364  22.102  13.463  0.00  0.00    +0.024 A 
ATOM     33  C   UNL     1      18.522  21.877  12.633  0.00  0.00    +0.007 A 
ATOM     34  C   UNL     1      19.782  22.482  12.957  0.00  0.00    -0.029 A 
ATOM     35  C   UNL     1      20.989  22.212  12.028  0.00  0.00    +0.045 C 
ENDROOT
BRANCH  10   9
ATOM      4  C   UNL     1      22.530  27.223  15.016  0.00  0.00    +0.077 A 
ATOM      5  C   UNL     1      21.453  28.109  14.679  0.00  0.00    +0.048 A 
ATOM      6  C   UNL     1      20.230  27.523  14.282  0.00  0.00    +0.116 A 
ATOM      7  N   UNL     1      20.105  26.152  14.230  0.00  0.00    -0.223 NA
ATOM      8  C   UNL     1      21.164  25.325  14.559  0.00  0.00    +0.220 A 
ATOM      9  N   UNL     1      21.057  23.944  14.521  0.00  0.00    -0.283 N 
ATOM     36  H   UNL     1      21.864  23.369  14.764  0.00  0.00    +0.155 HD
ATOM     37  N   UNL     1      22.342  25.861  14.940  0.00  0.00    -0.214 NA
BRANCH   4   3
ATOM      1  C   UNL     1      26.325  27.311  15.959  0.00  0.00    +0.020 A 
ATOM      2  C   UNL     1      25.041  26.809  15.527  0.00  0.00    +0.013 A 
ATOM      3  C   UNL     1      23.882  27.690  15.457  0.00  0.00    +0.019 A 
ATOM     38  C   UNL     1      24.058  29.085  15.832  0.00  0.00    +0.120 A 
ATOM     39  N   UNL     1      25.306  29.539  16.246  0.00  0.00    -0.263 NA
ATOM     40  C   UNL     1      26.428  28.700  16.319  0.00  0.00    +0.111 A 
ENDBRANCH   4   3
ENDBRANCH  10   9
BRANCH  12  13
ATOM     13  N   UNL     1      16.231  23.112  15.397  0.00  0.00    -0.281 N 
ATOM     14  C   UNL     1      15.943  22.608  16.656  0.00  0.00    +0.248 C 
ATOM     30  O   UNL     1      16.595  21.742  17.219  0.00  0.00    -0.270 OA
ATOM     31  H   UNL     1      15.504  23.682  14.966  0.00  0.00    +0.155 HD
BRANCH  14  15
ATOM     15  C   UNL     1      14.750  23.133  17.387  0.00  0.00    +0.037 A 
ATOM     16  C   UNL     1      13.424  23.151  16.765  0.00  0.00    +0.013 A 
ATOM     17  C   UNL     1      12.293  23.678  17.487  0.00  0.00    +0.005 A 
ATOM     18  C   UNL     1      12.485  24.192  18.841  0.00  0.00    -0.033 A 
ATOM     28  C   UNL     1      13.810  24.158  19.436  0.00  0.00    +0.005 A 
ATOM     29  C   UNL     1      14.921  23.643  18.731  0.00  0.00    +0.013 A 
BRANCH  18  19
ATOM     19  C   UNL     1      11.339  24.793  19.677  0.00  0.00    +0.119 C 
BRANCH  19  20
ATOM     20  N   UNL     1      10.000  24.140  19.572  0.00  0.00    -0.302 NA
ATOM     21  C   UNL     1       9.051  24.919  18.657  0.00  0.00    +0.066 C 
ATOM     22  C   UNL     1       7.663  24.210  18.541  0.00  0.00    -0.064 C 
ATOM     23  N   UNL     1       7.058  24.047  19.936  0.00  0.00    +0.379 N 
ATOM     24  C   UNL     1       5.727  23.433  19.825  0.00  0.00    -0.096 C 
ATOM     25  H   UNL     1       6.925  25.066  20.368  0.00  0.00    -0.082 HD
ATOM     26  C   UNL     1       7.996  23.276  20.853  0.00  0.00    -0.064 C 
ATOM     27  C   UNL     1       9.383  23.973  20.939  0.00  0.00    +0.066 C 
ENDBRANCH  19  20
ENDBRANCH  18  19
ENDBRANCH  14  15
ENDBRANCH  12  13
TORSDOF 6
ENDMDL
MODEL 3
REMARK VINA RESULT:      -9.6      2.747      3.725
REMARK  Name = C:\Users\Docking\Desktop\test protocol\1iep_ligandH.pdb
REMARK  8 active torsions:
REMARK  status: ('A' for Active; 'I' for Inactive)
REMARK    1  A    between atoms: _5  and  _11
REMARK    2  A    between atoms: _19  and  _21
REMARK    3  A    between atoms: _22  and  _66
REMARK    4  A    between atoms: _27  and  _30
REMARK    5  A    between atoms: _32  and  _33
REMARK    6  A    between atoms: _38  and  _43
REMARK    7  A    between atoms: _43  and  _46
REMARK    8  A    between atoms: _53  and  _55
REMARK                            x       y       z     vdW  Elec       q    Type
REMARK                         _______ _______ _______ _____ _____    ______ ____
ROOT
ATOM     10  C   UNL     1      18.915  20.985  13.942  0.00  0.00    +0.038 A 
ATOM     11  C   UNL     1      19.583  22.194  14.262  0.00  0.00    +0.047 A 
ATOM     12  C   UNL     1      20.716  22.659  13.476  0.00  0.00    +0.035 A 
ATOM     32  C   UNL     1      21.140  21.867  12.369  0.00  0.00    +0.024 A 
ATOM     33  C   UNL     1      20.474  20.635  12.031  0.00  0.00    +0.007 A 
ATOM     34  C   UNL     1      19.357  20.170  12.804  0.00  0.00    -0.029 A 
ATOM     35  C   UNL     1      18.685  18.838  12.399  0.00  0.00    +0.045 C 
ENDROOT
BRANCH  10   9
ATOM      4  C   UNL     1      14.208  20.700  14.837  0.00  0.00    +0.077 A 
ATOM      5  C   UNL     1      13.878  21.430  13.647  0.00  0.00    +0.048 A 
ATOM      6  C   UNL     1      14.949  21.867  12.835  0.00  0.00    +0.116 A 
ATOM      7  N   UNL     1      16.249  21.589  13.197  0.00  0.00    -0.223 NA
ATOM      8  C   UNL     1      16.533  20.884  14.352  0.00  0.00    +0.220 A 
ATOM      9  N   UNL     1      17.833  20.586  14.730  0.00  0.00    -0.283 N 
ATOM     36  H   UNL     1      18.002  20.070  15.594  0.00  0.00    +0.155 HD
ATOM     37  N   UNL     1      15.528  20.457  15.144  0.00  0.00    -0.214 NA
BRANCH   4   3
ATOM      1  C   UNL     1      11.572  18.400  16.587  0.00  0.00    +0.020 A 
ATOM      2  C   UNL     1      12.552  18.867  15.633  0.00  0.00    +0.013 A 
ATOM      3  C   UNL     1      13.188  20.168  15.794  0.00  0.00    +0.019 A 
ATOM     38  C   UNL     1      12.807  20.979  16.941  0.00  0.00    +0.120 A 
ATOM     39  N   UNL     1      11.860  20.504  17.843  0.00  0.00    -0.263 NA
ATOM     40  C   UNL     1      11.240  19.254  17.697  0.00  0.00    +0.111 A 
ENDBRANCH   4   3
ENDBRANCH  10   9
BRANCH  12  13
ATOM     13  N   UNL     1      21.438  23.874  13.758  0.00  0.00    -0.281 N 
ATOM     14  C   UNL     1      20.928  25.154  13.906  0.00  0.00    +0.248 C 
ATOM     30  O   UNL     1      19.790  25.483  13.604  0.00  0.00    -0.270 OA
ATOM     31  H   UNL     1      22.449  23.780  13.862  0.00  0.00    +0.155 HD
BRANCH  14  15
ATOM     15  C   UNL     1      21.814  26.226  14.454  0.00  0.00    +0.037 A 
ATOM     16  C   UNL     1      22.054  27.466  13.712  0.00  0.00    +0.013 A 
ATOM     17  C   UNL     1      22.926  28.477  14.255  0.00  0.00    +0.005 A 
ATOM     18  C   UNL     1      23.564  28.251  15.550  0.00  0.00    -0.033 A 
ATOM     28  C   UNL     1      23.304  27.014  16.267  0.00  0.00    +0.005 A 
ATOM     29  C   UNL     1      22.451  26.021  15.737  0.00  0.00    +0.013 A 
BRANCH  18  19
ATOM     19  C   UNL     1      24.526  29.266  16.197  0.00  0.00    +0.119 C 
BRANCH  19  20
ATOM     20  N   UNL     1      25.890  29.388  15.602  0.00  0.00    -0.302 NA
ATOM     21  C   UNL     1      26.521  28.021  15.323  0.00  0.00    +0.066 C 
ATOM     22  C   UNL     1      27.939  28.168  14.681  0.00  0.00    -0.064 C 
ATOM     23  N   UNL     1      28.831  28.997  15.606  0.00  0.00    +0.379 N 
ATOM     24  C   UNL     1      30.182  29.089  15.032  0.00  0.00    -0.096 C 
ATOM     25  H   UNL     1      28.911  28.453  16.575  0.00  0.00    -0.082 HD
ATOM     26  C   UNL     1      28.210  30.358  15.891  0.00  0.00    -0.064 C 
ATOM     27  C   UNL     1      26.790  30.200  16.502  0.00  0.00    +0.066 C 
ENDBRANCH  19  20
ENDBRANCH  18  19
ENDBRANCH  14  15
ENDBRANCH  12  13
TORSDOF 6
ENDMDL
MODEL 4
REMARK VINA RESULT:      -9.6      2.565     12.645
REMARK  Name = C:\Users\Docking\Desktop\test protocol\1iep_ligandH.pdb
REMARK  8 active torsions:
REMARK  status: ('A' for Active; 'I' for Inactive)
REMARK    1  A    between atoms: _5  and  _11
REMARK    2  A    between atoms: _19  and  _21
REMARK    3  A    between atoms: _22  and  _66
REMARK    4  A    between atoms: _27  and  _30
REMARK    5  A    between atoms: _32  and  _33
REMARK    6  A    between atoms: _38  and  _43
REMARK    7  A    between atoms: _43  and  _46
REMARK    8  A    between atoms: _53  and  _55
REMARK                            x       y       z     vdW  Elec       q    Type
REMARK                         _______ _______ _______ _____ _____    ______ ____
ROOT
ATOM     10  C   UNL     1      16.929  22.101  14.038  0.00  0.00    +0.038 A 
ATOM     11  C   UNL     1      15.692  22.422  14.653  0.00  0.00    +0.047 A 
ATOM     12  C   UNL     1      14.687  21.399  14.898  0.00  0.00    +0.035 A 
ATOM     32  C   UNL     1      14.976  20.060  14.506  0.00  0.00    +0.024 A 
ATOM     33  C   UNL     1      16.228  19.717  13.879  0.00  0.00    +0.007 A 
ATOM     34  C   UNL     1      17.223  20.721  13.633  0.00  0.00    -0.029 A 
ATOM     35  C   UNL     1      18.545  20.298  12.951  0.00  0.00    +0.045 C 
ENDROOT
BRANCH  10   9
ATOM      4  C   UNL     1      20.320  25.126  15.585  0.00  0.00    +0.077 A 
ATOM      5  C   UNL     1      20.213  24.650  16.934  0.00  0.00    +0.048 A 
ATOM      6  C   UNL     1      19.268  23.631  17.189  0.00  0.00    +0.116 A 
ATOM      7  N   UNL     1      18.493  23.132  16.164  0.00  0.00    -0.223 NA
ATOM      8  C   UNL     1      18.621  23.615  14.875  0.00  0.00    +0.220 A 
ATOM      9  N   UNL     1      17.859  23.123  13.827  0.00  0.00    -0.283 N 
ATOM     36  H   UNL     1      17.977  23.510  12.891  0.00  0.00    +0.155 HD
ATOM     37  N   UNL     1      19.515  24.589  14.606  0.00  0.00    -0.214 NA
BRANCH   4   3
ATOM      1  C   UNL     1      21.987  28.080  13.637  0.00  0.00    +0.020 A 
ATOM      2  C   UNL     1      21.033  27.060  14.008  0.00  0.00    +0.013 A 
ATOM      3  C   UNL     1      21.275  26.197  15.157  0.00  0.00    +0.019 A 
ATOM     38  C   UNL     1      22.501  26.393  15.916  0.00  0.00    +0.120 A 
ATOM     39  N   UNL     1      23.402  27.382  15.534  0.00  0.00    -0.263 NA
ATOM     40  C   UNL     1      23.181  28.218  14.430  0.00  0.00    +0.111 A 
ENDBRANCH   4   3
ENDBRANCH  10   9
BRANCH  12  13
ATOM     13  N   UNL     1      13.409  21.666  15.511  0.00  0.00    -0.281 N 
ATOM     14  C   UNL     1      13.134  21.867  16.854  0.00  0.00    +0.248 C 
ATOM     30  O   UNL     1      13.918  21.634  17.762  0.00  0.00    -0.270 OA
ATOM     31  H   UNL     1      12.611  21.713  14.878  0.00  0.00    +0.155 HD
BRANCH  14  15
ATOM     15  C   UNL     1      11.789  22.388  17.246  0.00  0.00    +0.037 A 
ATOM     16  C   UNL     1      10.560  21.713  16.821  0.00  0.00    +0.013 A 
ATOM     17  C   UNL     1       9.275  22.246  17.198  0.00  0.00    +0.005 A 
ATOM     18  C   UNL     1       9.213  23.461  18.007  0.00  0.00    -0.033 A 
ATOM     28  C   UNL     1      10.449  24.107  18.420  0.00  0.00    +0.005 A 
ATOM     29  C   UNL     1      11.710  23.588  18.051  0.00  0.00    +0.013 A 
BRANCH  18  19
ATOM     19  C   UNL     1       7.886  24.112  18.439  0.00  0.00    +0.119 C 
BRANCH  19  20
ATOM     20  N   UNL     1       7.449  23.904  19.852  0.00  0.00    -0.302 NA
ATOM     21  C   UNL     1       6.003  23.410  19.939  0.00  0.00    +0.066 C 
ATOM     22  C   UNL     1       5.570  23.176  21.423  0.00  0.00    -0.064 C 
ATOM     23  N   UNL     1       5.748  24.473  22.214  0.00  0.00    +0.379 N 
ATOM     24  C   UNL     1       5.288  24.272  23.596  0.00  0.00    -0.096 C 
ATOM     25  H   UNL     1       5.094  25.246  21.748  0.00  0.00    -0.082 HD
ATOM     26  C   UNL     1       7.184  24.972  22.130  0.00  0.00    -0.064 C 
ATOM     27  C   UNL     1       7.613  25.174  20.650  0.00  0.00    +0.066 C 
ENDBRANCH  19  20
ENDBRANCH  18  19
ENDBRANCH  14  15
ENDBRANCH  12  13
TORSDOF 6
ENDMDL
MODEL 5
REMARK VINA RESULT:      -9.6      5.585      9.254
REMARK  Name = C:\Users\Docking\Desktop\test protocol\1iep_ligandH.pdb
REMARK  8 active torsions:
REMARK  status: ('A' for Active; 'I' for Inactive)
REMARK    1  A    between atoms: _5  and  _11
REMARK    2  A    between atoms: _19  and  _21
REMARK    3  A    between atoms: _22  and  _66
REMARK    4  A    between atoms: _27  and  _30
REMARK    5  A    between atoms: _32  and  _33
REMARK    6  A    between atoms: _38  and  _43
REMARK    7  A    between atoms: _43  and  _46
REMARK    8  A    between atoms: _53  and  _55
REMARK                            x       y       z     vdW  Elec       q    Type
REMARK                         _______ _______ _______ _____ _____    ______ ____
ROOT
ATOM     10  C   UNL     1       9.286  25.800  19.358  0.00  0.00    +0.038 A 
ATOM     11  C   UNL     1      10.543  25.513  18.766  0.00  0.00    +0.047 A 
ATOM     12  C   UNL     1      11.103  24.172  18.802  0.00  0.00    +0.035 A 
ATOM     32  C   UNL     1      10.356  23.144  19.448  0.00  0.00    +0.024 A 
ATOM     33  C   UNL     1       9.078  23.418  20.057  0.00  0.00    +0.007 A 
ATOM     34  C   UNL     1       8.521  24.740  20.026  0.00  0.00    -0.029 A 
ATOM     35  C   UNL     1       7.150  24.977  20.700  0.00  0.00    +0.045 C 
ENDROOT
BRANCH  10   9
ATOM      4  C   UNL     1       8.358  30.075  21.333  0.00  0.00    +0.077 A 
ATOM      5  C   UNL     1       8.870  29.663  22.609  0.00  0.00    +0.048 A 
ATOM      6  C   UNL     1       9.356  28.340  22.716  0.00  0.00    +0.116 A 
ATOM      7  N   UNL     1       9.328  27.502  21.624  0.00  0.00    -0.223 NA
ATOM      8  C   UNL     1       8.826  27.930  20.408  0.00  0.00    +0.220 A 
ATOM      9  N   UNL     1       8.795  27.106  19.294  0.00  0.00    -0.283 N 
ATOM     36  H   UNL     1       8.410  27.457  18.418  0.00  0.00    +0.155 HD
ATOM     37  N   UNL     1       8.354  29.188  20.280  0.00  0.00    -0.214 NA
BRANCH   4   3
ATOM      1  C   UNL     1       6.244  33.359  21.538  0.00  0.00    +0.020 A 
ATOM      2  C   UNL     1       6.734  32.035  21.842  0.00  0.00    +0.013 A 
ATOM      3  C   UNL     1       7.812  31.442  21.061  0.00  0.00    +0.019 A 
ATOM     38  C   UNL     1       8.377  32.222  19.970  0.00  0.00    +0.120 A 
ATOM     39  N   UNL     1       7.883  33.494  19.699  0.00  0.00    -0.263 NA
ATOM     40  C   UNL     1       6.845  34.075  20.443  0.00  0.00    +0.111 A 
ENDBRANCH   4   3
ENDBRANCH  10   9
BRANCH  12  13
ATOM     13  N   UNL     1      12.378  23.823  18.225  0.00  0.00    -0.281 N 
ATOM     14  C   UNL     1      12.625  22.993  17.143  0.00  0.00    +0.248 C 
ATOM     30  O   UNL     1      11.795  22.252  16.638  0.00  0.00    -0.270 OA
ATOM     31  H   UNL     1      13.198  24.239  18.667  0.00  0.00    +0.155 HD
BRANCH  14  15
ATOM     15  C   UNL     1      13.994  22.974  16.546  0.00  0.00    +0.037 A 
ATOM     16  C   UNL     1      15.176  23.316  17.342  0.00  0.00    +0.013 A 
ATOM     17  C   UNL     1      16.484  23.306  16.736  0.00  0.00    +0.005 A 
ATOM     18  C   UNL     1      16.617  22.951  15.325  0.00  0.00    -0.033 A 
ATOM     28  C   UNL     1      15.429  22.610  14.560  0.00  0.00    +0.005 A 
ATOM     29  C   UNL     1      14.145  22.620  15.150  0.00  0.00    +0.013 A 
BRANCH  18  19
ATOM     19  C   UNL     1      17.971  22.934  14.591  0.00  0.00    +0.119 C 
BRANCH  19  20
ATOM     20  N   UNL     1      18.121  21.976  13.455  0.00  0.00    -0.302 NA
ATOM     21  C   UNL     1      18.506  20.574  13.934  0.00  0.00    +0.066 C 
ATOM     22  C   UNL     1      18.637  19.579  12.735  0.00  0.00    -0.064 C 
ATOM     23  N   UNL     1      19.670  20.115  11.742  0.00  0.00    +0.379 N 
ATOM     24  C   UNL     1      19.838  19.154  10.642  0.00  0.00    -0.096 C 
ATOM     25  H   UNL     1      20.645  20.191  12.277  0.00  0.00    -0.082 HD
ATOM     26  C   UNL     1      19.297  21.511  11.263  0.00  0.00    -0.064 C 
ATOM     27  C   UNL     1      19.140  22.484  12.465  0.00  0.00    +0.066 C 
ENDBRANCH  19  20
ENDBRANCH  18  19
ENDBRANCH  14  15
ENDBRANCH  12  13
TORSDOF 6
ENDMDL
