MODEL 1
REMARK VINA RESULT:      -9.7      0.000      0.000
REMARK  Name = C:\Users\Docking\Desktop\test protocol\1iep_ligandH.pdb
REMARK  8 active torsions:
REMARK  status: ('A' for Active; 'I' for Inactive)
REMARK    1  A    between atoms: _5  and  _11
REMARK    2  A    between atoms: _19  and  _21
REMARK    3  A    between atoms: _22  and  _66
REMARK    4  A    between atoms: _27  and  _30
REMARK    5  A    between atoms: _32  and  _33
REMARK    6  A    between atoms: _38  and  _43
REMARK    7  A    between atoms: _43  and  _46
REMARK    8  A    between atoms: _53  and  _55
REMARK                            x       y       z     vdW  Elec       q    Type
REMARK                         _______ _______ _______ _____ _____    ______ ____
ROOT
ATOM     10  C   UNL     1      15.448  22.225  14.644  0.00  0.00    +0.038 A 
ATOM     11  C   UNL     1      16.494  23.156  14.865  0.00  0.00    +0.047 A 
ATOM     12  C   UNL     1      17.864  22.855  14.479  0.00  0.00    +0.035 A 
ATOM     32  C   UNL     1      18.132  21.596  13.868  0.00  0.00    +0.024 A 
ATOM     33  C   UNL     1      17.081  20.636  13.637  0.00  0.00    +0.007 A 
ATOM     34  C   UNL     1      15.728  20.927  14.018  0.00  0.00    -0.029 A 
ATOM     35  C   UNL     1      14.642  19.858  13.752  0.00  0.00    +0.045 C 
ENDROOT
BRANCH  10   9
ATOM      4  C   UNL     1      12.269  23.730  17.910  0.00  0.00    +0.077 A 
ATOM      5  C   UNL     1      13.271  23.818  18.932  0.00  0.00    +0.048 A 
ATOM      6  C   UNL     1      14.592  23.460  18.578  0.00  0.00    +0.116 A 
ATOM      7  N   UNL     1      14.877  23.047  17.295  0.00  0.00    -0.223 NA
ATOM      8  C   UNL     1      13.886  22.971  16.334  0.00  0.00    +0.220 A 
ATOM      9  N   UNL     1      14.151  22.566  15.035  0.00  0.00    -0.283 N 
ATOM     36  H   UNL     1      13.391  22.516  14.357  0.00  0.00    +0.155 HD
ATOM     37  N   UNL     1      12.617  23.306  16.647  0.00  0.00    -0.214 NA
BRANCH   4   3
ATOM      1  C   UNL     1       8.367  23.524  18.106  0.00  0.00    +0.020 A 
ATOM      2  C   UNL     1       9.741  23.139  17.878  0.00  0.00    +0.013 A 
ATOM      3  C   UNL     1      10.829  24.077  18.128  0.00  0.00    +0.019 A 
ATOM     38  C   UNL     1      10.489  25.406  18.613  0.00  0.00    +0.120 A 
ATOM     39  N   UNL     1       9.157  25.749  18.821  0.00  0.00    -0.263 NA
ATOM     40  C   UNL     1       8.102  24.856  18.582  0.00  0.00    +0.111 A 
ENDBRANCH   4   3
ENDBRANCH  10   9
BRANCH  12  13
ATOM     13  N   UNL     1      18.969  23.758  14.685  0.00  0.00    -0.281 N 
ATOM     14  C   UNL     1      19.493  24.680  13.794  0.00  0.00    +0.248 C 
ATOM     30  O   UNL     1      19.226  24.718  12.602  0.00  0.00    -0.270 OA
ATOM     31  H   UNL     1      19.419  23.713  15.600  0.00  0.00    +0.155 HD
BRANCH  14  15
ATOM     15  C   UNL     1      20.466  25.697  14.296  0.00  0.00    +0.037 A 
ATOM     16  C   UNL     1      20.111  27.117  14.369  0.00  0.00    +0.013 A 
ATOM     17  C   UNL     1      21.074  28.080  14.841  0.00  0.00    +0.005 A 
ATOM     18  C   UNL     1      22.402  27.625  15.246  0.00  0.00    -0.033 A 
ATOM     28  C   UNL     1      22.726  26.210  15.169  0.00  0.00    +0.005 A 
ATOM     29  C   UNL     1      21.785  25.264  14.706  0.00  0.00    +0.013 A 
BRANCH  18  19
ATOM     19  C   UNL     1      23.500  28.585  15.743  0.00  0.00    +0.119 C 
BRANCH  19  20
ATOM     20  N   UNL     1      24.872  28.022  15.919  0.00  0.00    -0.302 NA
ATOM     21  C   UNL     1      25.260  27.907  17.396  0.00  0.00    +0.066 C 
ATOM     22  C   UNL     1      26.689  27.295  17.563  0.00  0.00    -0.064 C 
ATOM     23  N   UNL     1      27.700  28.155  16.803  0.00  0.00    +0.379 N 
ATOM     24  C   UNL     1      29.053  27.616  17.005  0.00  0.00    -0.096 C 
ATOM     25  H   UNL     1      27.674  29.178  17.245  0.00  0.00    -0.082 HD
ATOM     26  C   UNL     1      27.321  28.277  15.334  0.00  0.00    -0.064 C 
ATOM     27  C   UNL     1      25.887  28.858  15.180  0.00  0.00    +0.066 C 
ENDBRANCH  19  20
ENDBRANCH  18  19
ENDBRANCH  14  15
ENDBRANCH  12  13
TORSDOF 6
ENDMDL
MODEL 2
REMARK VINA RESULT:      -9.6      4.500      8.346
REMARK  Name = C:\Users\Docking\Desktop\test protocol\1iep_ligandH.pdb
REMARK  8 active torsions:
REMARK  status: ('A' for Active; 'I' for Inactive)
REMARK    1  A    between atoms: _5  and  _11
REMARK    2  A    between atoms: _19  and  _21
REMARK    3  A    between atoms: _22  and  _66
REMARK    4  A    between atoms: _27  and  _30
REMARK    5  A    between atoms: _32  and  _33
REMARK    6  A    between atoms: _38  and  _43
REMARK    7  A    between atoms: _43  and  _46
REMARK    8  A    between atoms: _53  and  _55
REMARK                            x       y       z     vdW  Elec       q    Type
REMARK                         _______ _______ _______ _____ _____    ______ ____
ROOT
ATOM     10  C   UNL     1       9.490  25.751  19.048  0.00  0.00    +0.038 A 
ATOM     11  C   UNL     1      10.830  25.568  18.623  0.00  0.00    +0.047 A 
ATOM     12  C   UNL     1      11.444  24.250  18.614  0.00  0.00    +0.035 A 
ATOM     32  C   UNL     1      10.662  23.138  19.042  0.00  0.00    +0.024 A 
ATOM     33  C   UNL     1       9.298  23.305  19.479  0.00  0.00    +0.007 A 
ATOM     34  C   UNL     1       8.688  24.604  19.492  0.00  0.00    -0.029 A 
ATOM     35  C   UNL     1       7.224  24.726  19.976  0.00  0.00    +0.045 C 
ENDROOT
BRANCH  10   9
ATOM      4  C   UNL     1       8.324  29.871  21.216  0.00  0.00    +0.077 A 
ATOM      5  C   UNL     1       8.805  29.408  22.486  0.00  0.00    +0.048 A 
ATOM      6  C   UNL     1       9.338  28.101  22.540  0.00  0.00    +0.116 A 
ATOM      7  N   UNL     1       9.383  27.324  21.403  0.00  0.00    -0.223 NA
ATOM      8  C   UNL     1       8.909  27.801  20.194  0.00  0.00    +0.220 A 
ATOM      9  N   UNL     1       8.951  27.039  19.036  0.00  0.00    -0.283 N 
ATOM     36  H   UNL     1       8.584  27.425  18.166  0.00  0.00    +0.155 HD
ATOM     37  N   UNL     1       8.393  29.045  20.117  0.00  0.00    -0.214 NA
BRANCH   4   3
ATOM      1  C   UNL     1       6.169  33.112  21.605  0.00  0.00    +0.020 A 
ATOM      2  C   UNL     1       6.704  31.795  21.859  0.00  0.00    +0.013 A 
ATOM      3  C   UNL     1       7.735  31.230  20.998  0.00  0.00    +0.019 A 
ATOM     38  C   UNL     1       8.209  32.032  19.880  0.00  0.00    +0.120 A 
ATOM     39  N   UNL     1       7.674  33.298  19.659  0.00  0.00    -0.263 NA
ATOM     40  C   UNL     1       6.680  33.850  20.479  0.00  0.00    +0.111 A 
ENDBRANCH   4   3
ENDBRANCH  10   9
BRANCH  12  13
ATOM     13  N   UNL     1      12.804  24.004  18.201  0.00  0.00    -0.281 N 
ATOM     14  C   UNL     1      13.243  23.296  17.094  0.00  0.00    +0.248 C 
ATOM     30  O   UNL     1      12.531  22.581  16.405  0.00  0.00    -0.270 OA
ATOM     31  H   UNL     1      13.531  24.401  18.796  0.00  0.00    +0.155 HD
BRANCH  14  15
ATOM     15  C   UNL     1      14.683  23.383  16.706  0.00  0.00    +0.037 A 
ATOM     16  C   UNL     1      15.125  23.062  15.347  0.00  0.00    +0.013 A 
ATOM     17  C   UNL     1      16.523  23.138  15.003  0.00  0.00    +0.005 A 
ATOM     18  C   UNL     1      17.490  23.539  16.022  0.00  0.00    -0.033 A 
ATOM     28  C   UNL     1      17.024  23.858  17.361  0.00  0.00    +0.005 A 
ATOM     29  C   UNL     1      15.655  23.783  17.702  0.00  0.00    +0.013 A 
BRANCH  18  19
ATOM     19  C   UNL     1      19.003  23.627  15.750  0.00  0.00    +0.119 C 
BRANCH  19  20
ATOM     20  N   UNL     1      19.545  22.807  14.626  0.00  0.00    -0.302 NA
ATOM     21  C   UNL     1      19.553  21.312  14.958  0.00  0.00    +0.066 C 
ATOM     22  C   UNL     1      20.101  20.466  13.762  0.00  0.00    -0.064 C 
ATOM     23  N   UNL     1      21.508  20.949  13.403  0.00  0.00    +0.379 N 
ATOM     24  C   UNL     1      22.049  20.118  12.318  0.00  0.00    -0.096 C 
ATOM     25  H   UNL     1      22.155  20.800  14.298  0.00  0.00    -0.082 HD
ATOM     26  C   UNL     1      21.509  22.435  13.074  0.00  0.00    -0.064 C 
ATOM     27  C   UNL     1      20.935  23.264  14.257  0.00  0.00    +0.066 C 
ENDBRANCH  19  20
ENDBRANCH  18  19
ENDBRANCH  14  15
ENDBRANCH  12  13
TORSDOF 6
ENDMDL
MODEL 3
REMARK VINA RESULT:      -9.5      3.935      7.683
REMARK  Name = C:\Users\Docking\Desktop\test protocol\1iep_ligandH.pdb
REMARK  8 active torsions:
REMARK  status: ('A' for Active; 'I' for Inactive)
REMARK    1  A    between atoms: _5  and  _11
REMARK    2  A    between atoms: _19  and  _21
REMARK    3  A    between atoms: _22  and  _66
REMARK    4  A    between atoms: _27  and  _30
REMARK    5  A    between atoms: _32  and  _33
REMARK    6  A    between atoms: _38  and  _43
REMARK    7  A    between atoms: _43  and  _46
REMARK    8  A    between atoms: _53  and  _55
REMARK                            x       y       z     vdW  Elec       q    Type
REMARK                         _______ _______ _______ _____ _____    ______ ____
ROOT
ATOM     10  C   UNL     1       9.630  25.589  18.744  0.00  0.00    +0.038 A 
ATOM     11  C   UNL     1      10.956  25.400  18.279  0.00  0.00    +0.047 A 
ATOM     12  C   UNL     1      11.549  24.073  18.213  0.00  0.00    +0.035 A 
ATOM     32  C   UNL     1      10.760  22.960  18.626  0.00  0.00    +0.024 A 
ATOM     33  C   UNL     1       9.411  23.134  19.102  0.00  0.00    +0.007 A 
ATOM     34  C   UNL     1       8.822  24.440  19.172  0.00  0.00    -0.029 A 
ATOM     35  C   UNL     1       7.373  24.568  19.697  0.00  0.00    +0.045 C 
ENDROOT
BRANCH  10   9
ATOM      4  C   UNL     1       8.510  29.625  21.088  0.00  0.00    +0.077 A 
ATOM      5  C   UNL     1       8.973  29.097  22.339  0.00  0.00    +0.048 A 
ATOM      6  C   UNL     1       9.485  27.780  22.337  0.00  0.00    +0.116 A 
ATOM      7  N   UNL     1       9.527  27.055  21.166  0.00  0.00    -0.223 NA
ATOM      8  C   UNL     1       9.071  27.593  19.977  0.00  0.00    +0.220 A 
ATOM      9  N   UNL     1       9.111  26.885  18.786  0.00  0.00    -0.283 N 
ATOM     36  H   UNL     1       8.758  27.315  17.932  0.00  0.00    +0.155 HD
ATOM     37  N   UNL     1       8.575  28.848  19.952  0.00  0.00    -0.214 NA
BRANCH   4   3
ATOM      1  C   UNL     1       6.359  32.857  21.567  0.00  0.00    +0.020 A 
ATOM      2  C   UNL     1       6.870  31.520  21.764  0.00  0.00    +0.013 A 
ATOM      3  C   UNL     1       7.944  31.002  20.926  0.00  0.00    +0.019 A 
ATOM     38  C   UNL     1       8.485  31.869  19.891  0.00  0.00    +0.120 A 
ATOM     39  N   UNL     1       7.972  33.152  19.724  0.00  0.00    -0.263 NA
ATOM     40  C   UNL     1       6.938  33.661  20.523  0.00  0.00    +0.111 A 
ENDBRANCH   4   3
ENDBRANCH  10   9
BRANCH  12  13
ATOM     13  N   UNL     1      12.893  23.821  17.757  0.00  0.00    -0.281 N 
ATOM     14  C   UNL     1      13.295  23.085  16.655  0.00  0.00    +0.248 C 
ATOM     30  O   UNL     1      12.562  22.350  16.010  0.00  0.00    -0.270 OA
ATOM     31  H   UNL     1      13.640  24.235  18.316  0.00  0.00    +0.155 HD
BRANCH  14  15
ATOM     15  C   UNL     1      14.720  23.166  16.212  0.00  0.00    +0.037 A 
ATOM     16  C   UNL     1      15.721  23.889  17.001  0.00  0.00    +0.013 A 
ATOM     17  C   UNL     1      17.085  23.967  16.543  0.00  0.00    +0.005 A 
ATOM     18  C   UNL     1      17.458  23.317  15.289  0.00  0.00    -0.033 A 
ATOM     28  C   UNL     1      16.446  22.602  14.528  0.00  0.00    +0.005 A 
ATOM     29  C   UNL     1      15.107  22.525  14.974  0.00  0.00    +0.013 A 
BRANCH  18  19
ATOM     19  C   UNL     1      18.885  23.366  14.713  0.00  0.00    +0.119 C 
BRANCH  19  20
ATOM     20  N   UNL     1      19.707  24.574  15.025  0.00  0.00    -0.302 NA
ATOM     21  C   UNL     1      19.137  25.840  14.379  0.00  0.00    +0.066 C 
ATOM     22  C   UNL     1      19.996  27.096  14.735  0.00  0.00    -0.064 C 
ATOM     23  N   UNL     1      21.441  26.865  14.289  0.00  0.00    +0.379 N 
ATOM     24  C   UNL     1      22.239  28.068  14.569  0.00  0.00    -0.096 C 
ATOM     25  H   UNL     1      21.434  26.713  13.185  0.00  0.00    -0.082 HD
ATOM     26  C   UNL     1      22.015  25.607  14.924  0.00  0.00    -0.064 C 
ATOM     27  C   UNL     1      21.137  24.369  14.589  0.00  0.00    +0.066 C 
ENDBRANCH  19  20
ENDBRANCH  18  19
ENDBRANCH  14  15
ENDBRANCH  12  13
TORSDOF 6
ENDMDL
MODEL 4
REMARK VINA RESULT:      -9.5      2.021     12.548
REMARK  Name = C:\Users\Docking\Desktop\test protocol\1iep_ligandH.pdb
REMARK  8 active torsions:
REMARK  status: ('A' for Active; 'I' for Inactive)
REMARK    1  A    between atoms: _5  and  _11
REMARK    2  A    between atoms: _19  and  _21
REMARK    3  A    between atoms: _22  and  _66
REMARK    4  A    between atoms: _27  and  _30
REMARK    5  A    between atoms: _32  and  _33
REMARK    6  A    between atoms: _38  and  _43
REMARK    7  A    between atoms: _43  and  _46
REMARK    8  A    between atoms: _53  and  _55
REMARK                            x       y       z     vdW  Elec       q    Type
REMARK                         _______ _______ _______ _____ _____    ______ ____
ROOT
ATOM     10  C   UNL     1      20.026  23.481  14.398  0.00  0.00    +0.038 A 
ATOM     11  C   UNL     1      18.843  23.663  15.160  0.00  0.00    +0.047 A 
ATOM     12  C   UNL     1      17.580  23.077  14.741  0.00  0.00    +0.035 A 
ATOM     32  C   UNL     1      17.557  22.308  13.541  0.00  0.00    +0.024 A 
ATOM     33  C   UNL     1      18.750  22.113  12.753  0.00  0.00    +0.007 A 
ATOM     34  C   UNL     1      19.998  22.691  13.161  0.00  0.00    -0.029 A 
ATOM     35  C   UNL     1      21.243  22.455  12.274  0.00  0.00    +0.045 C 
ENDROOT
BRANCH  10   9
ATOM      4  C   UNL     1      22.822  27.298  15.201  0.00  0.00    +0.077 A 
ATOM      5  C   UNL     1      21.849  28.200  14.655  0.00  0.00    +0.048 A 
ATOM      6  C   UNL     1      20.645  27.640  14.171  0.00  0.00    +0.116 A 
ATOM      7  N   UNL     1      20.440  26.279  14.235  0.00  0.00    -0.223 NA
ATOM      8  C   UNL     1      21.400  25.437  14.766  0.00  0.00    +0.220 A 
ATOM      9  N   UNL     1      21.211  24.066  14.848  0.00  0.00    -0.283 N 
ATOM     36  H   UNL     1      21.947  23.479  15.240  0.00  0.00    +0.155 HD
ATOM     37  N   UNL     1      22.558  25.947  15.234  0.00  0.00    -0.214 NA
BRANCH   4   3
ATOM      1  C   UNL     1      25.734  29.500  16.606  0.00  0.00    +0.020 A 
ATOM      2  C   UNL     1      24.444  29.128  16.072  0.00  0.00    +0.013 A 
ATOM      3  C   UNL     1      24.141  27.738  15.755  0.00  0.00    +0.019 A 
ATOM     38  C   UNL     1      25.174  26.740  15.993  0.00  0.00    +0.120 A 
ATOM     39  N   UNL     1      26.407  27.128  16.506  0.00  0.00    -0.263 NA
ATOM     40  C   UNL     1      26.711  28.463  16.813  0.00  0.00    +0.111 A 
ENDBRANCH   4   3
ENDBRANCH  10   9
BRANCH  12  13
ATOM     13  N   UNL     1      16.346  23.234  15.469  0.00  0.00    -0.281 N 
ATOM     14  C   UNL     1      16.028  22.740  16.724  0.00  0.00    +0.248 C 
ATOM     30  O   UNL     1      16.686  21.903  17.323  0.00  0.00    -0.270 OA
ATOM     31  H   UNL     1      15.618  23.776  15.003  0.00  0.00    +0.155 HD
BRANCH  14  15
ATOM     15  C   UNL     1      14.794  23.238  17.405  0.00  0.00    +0.037 A 
ATOM     16  C   UNL     1      13.486  23.175  16.748  0.00  0.00    +0.013 A 
ATOM     17  C   UNL     1      12.314  23.678  17.421  0.00  0.00    +0.005 A 
ATOM     18  C   UNL     1      12.446  24.247  18.760  0.00  0.00    -0.033 A 
ATOM     28  C   UNL     1      13.755  24.292  19.390  0.00  0.00    +0.005 A 
ATOM     29  C   UNL     1      14.906  23.802  18.733  0.00  0.00    +0.013 A 
BRANCH  18  19
ATOM     19  C   UNL     1      11.253  24.826  19.543  0.00  0.00    +0.119 C 
BRANCH  19  20
ATOM     20  N   UNL     1       9.944  24.121  19.415  0.00  0.00    -0.302 NA
ATOM     21  C   UNL     1       8.925  24.940  18.617  0.00  0.00    +0.066 C 
ATOM     22  C   UNL     1       7.568  24.177  18.473  0.00  0.00    -0.064 C 
ATOM     23  N   UNL     1       7.025  23.843  19.864  0.00  0.00    +0.379 N 
ATOM     24  C   UNL     1       5.720  23.177  19.734  0.00  0.00    -0.096 C 
ATOM     25  H   UNL     1       6.861  24.805  20.402  0.00  0.00    -0.082 HD
ATOM     26  C   UNL     1       8.032  23.031  20.665  0.00  0.00    -0.064 C 
ATOM     27  C   UNL     1       9.386  23.785  20.777  0.00  0.00    +0.066 C 
ENDBRANCH  19  20
ENDBRANCH  18  19
ENDBRANCH  14  15
ENDBRANCH  12  13
TORSDOF 6
ENDMDL
MODEL 5
REMARK VINA RESULT:      -9.4      7.720     14.634
REMARK  Name = C:\Users\Docking\Desktop\test protocol\1iep_ligandH.pdb
REMARK  8 active torsions:
REMARK  status: ('A' for Active; 'I' for Inactive)
REMARK    1  A    between atoms: _5  and  _11
REMARK    2  A    between atoms: _19  and  _21
REMARK    3  A    between atoms: _22  and  _66
REMARK    4  A    between atoms: _27  and  _30
REMARK    5  A    between atoms: _32  and  _33
REMARK    6  A    between atoms: _38  and  _43
REMARK    7  A    between atoms: _43  and  _46
REMARK    8  A    between atoms: _53  and  _55
REMARK                            x       y       z     vdW  Elec       q    Type
REMARK                         _______ _______ _______ _____ _____    ______ ____
ROOT
ATOM     10  C   UNL     1      10.355  25.975  20.075  0.00  0.00    +0.038 A 
ATOM     11  C   UNL     1       9.777  27.213  19.694  0.00  0.00    +0.047 A 
ATOM     12  C   UNL     1       8.794  27.876  20.537  0.00  0.00    +0.035 A 
ATOM     32  C   UNL     1       8.425  27.251  21.763  0.00  0.00    +0.024 A 
ATOM     33  C   UNL     1       9.001  25.993  22.166  0.00  0.00    +0.007 A 
ATOM     34  C   UNL     1       9.969  25.333  21.337  0.00  0.00    -0.029 A 
ATOM     35  C   UNL     1      10.549  23.981  21.816  0.00  0.00    +0.045 C 
ENDROOT
BRANCH  10   9
ATOM      4  C   UNL     1      11.634  22.709  16.799  0.00  0.00    +0.077 A 
ATOM      5  C   UNL     1      10.328  22.115  16.795  0.00  0.00    +0.048 A 
ATOM      6  C   UNL     1       9.357  22.676  17.656  0.00  0.00    +0.116 A 
ATOM      7  N   UNL     1       9.680  23.750  18.456  0.00  0.00    -0.223 NA
ATOM      8  C   UNL     1      10.950  24.298  18.437  0.00  0.00    +0.220 A 
ATOM      9  N   UNL     1      11.294  25.383  19.228  0.00  0.00    -0.283 N 
ATOM     36  H   UNL     1      12.243  25.753  19.190  0.00  0.00    +0.155 HD
ATOM     37  N   UNL     1      11.894  23.780  17.625  0.00  0.00    -0.214 NA
BRANCH   4   3
ATOM      1  C   UNL     1      14.801  22.622  14.506  0.00  0.00    +0.020 A 
ATOM      2  C   UNL     1      13.726  23.135  15.324  0.00  0.00    +0.013 A 
ATOM      3  C   UNL     1      12.765  22.231  15.943  0.00  0.00    +0.019 A 
ATOM     38  C   UNL     1      12.920  20.803  15.713  0.00  0.00    +0.120 A 
ATOM     39  N   UNL     1      13.964  20.338  14.919  0.00  0.00    -0.263 NA
ATOM     40  C   UNL     1      14.895  21.198  14.317  0.00  0.00    +0.111 A 
ENDBRANCH   4   3
ENDBRANCH  10   9
BRANCH  12  13
ATOM     13  N   UNL     1       8.168  29.130  20.198  0.00  0.00    -0.281 N 
ATOM     14  C   UNL     1       8.237  30.330  20.887  0.00  0.00    +0.248 C 
ATOM     30  O   UNL     1       8.677  30.452  22.020  0.00  0.00    -0.270 OA
ATOM     31  H   UNL     1       7.605  29.133  19.347  0.00  0.00    +0.155 HD
BRANCH  14  15
ATOM     15  C   UNL     1       7.730  31.572  20.226  0.00  0.00    +0.037 A 
ATOM     16  C   UNL     1       8.648  32.622  19.778  0.00  0.00    +0.013 A 
ATOM     17  C   UNL     1       8.132  33.818  19.159  0.00  0.00    +0.005 A 
ATOM     18  C   UNL     1       6.689  33.967  18.984  0.00  0.00    -0.033 A 
ATOM     28  C   UNL     1       5.802  32.907  19.433  0.00  0.00    +0.005 A 
ATOM     29  C   UNL     1       6.304  31.735  20.041  0.00  0.00    +0.013 A 
BRANCH  18  19
ATOM     19  C   UNL     1       6.049  35.218  18.353  0.00  0.00    +0.119 C 
BRANCH  19  20
ATOM     20  N   UNL     1       5.907  36.425  19.220  0.00  0.00    -0.302 NA
ATOM     21  C   UNL     1       4.824  36.243  20.287  0.00  0.00    +0.066 C 
ATOM     22  C   UNL     1       4.705  37.506  21.200  0.00  0.00    -0.064 C 
ATOM     23  N   UNL     1       4.411  38.732  20.334  0.00  0.00    +0.379 N 
ATOM     24  C   UNL     1       4.241  39.912  21.194  0.00  0.00    -0.096 C 
ATOM     25  H   UNL     1       3.443  38.552  19.811  0.00  0.00    -0.082 HD
ATOM     26  C   UNL     1       5.482  38.920  19.268  0.00  0.00    -0.064 C 
ATOM     27  C   UNL     1       5.612  37.647  18.385  0.00  0.00    +0.066 C 
ENDBRANCH  19  20
ENDBRANCH  18  19
ENDBRANCH  14  15
ENDBRANCH  12  13
TORSDOF 6
ENDMDL
