MODEL 1
REMARK VINA RESULT:      -8.9      0.000      0.000
REMARK  Name = C:\Users\Docking\Desktop\test protocol\1iep_ligandH.pdb
REMARK  8 active torsions:
REMARK  status: ('A' for Active; 'I' for Inactive)
REMARK    1  A    between atoms: _5  and  _11
REMARK    2  A    between atoms: _19  and  _21
REMARK    3  A    between atoms: _22  and  _66
REMARK    4  A    between atoms: _27  and  _30
REMARK    5  A    between atoms: _32  and  _33
REMARK    6  A    between atoms: _38  and  _43
REMARK    7  A    between atoms: _43  and  _46
REMARK    8  A    between atoms: _53  and  _55
REMARK                            x       y       z     vdW  Elec       q    Type
REMARK                         _______ _______ _______ _____ _____    ______ ____
ROOT
ATOM     10  C   UNL     1      10.364  26.265  20.300  0.00  0.00    +0.038 A 
ATOM     11  C   UNL     1       9.772  27.495  19.914  0.00  0.00    +0.047 A 
ATOM     12  C   UNL     1       8.676  28.074  20.675  0.00  0.00    +0.035 A 
ATOM     32  C   UNL     1       8.208  27.375  21.825  0.00  0.00    +0.024 A 
ATOM     33  C   UNL     1       8.797  26.123  22.231  0.00  0.00    +0.007 A 
ATOM     34  C   UNL     1       9.877  25.545  21.483  0.00  0.00    -0.029 A 
ATOM     35  C   UNL     1      10.466  24.198  21.961  0.00  0.00    +0.045 C 
ENDROOT
BRANCH  10   9
ATOM      4  C   UNL     1      12.162  23.140  17.132  0.00  0.00    +0.077 A 
ATOM      5  C   UNL     1      10.911  22.448  17.015  0.00  0.00    +0.048 A 
ATOM      6  C   UNL     1       9.831  22.924  17.792  0.00  0.00    +0.116 A 
ATOM      7  N   UNL     1      10.001  24.012  18.621  0.00  0.00    -0.223 NA
ATOM      8  C   UNL     1      11.222  24.655  18.712  0.00  0.00    +0.220 A 
ATOM      9  N   UNL     1      11.414  25.755  19.534  0.00  0.00    -0.283 N 
ATOM     36  H   UNL     1      12.332  26.197  19.578  0.00  0.00    +0.155 HD
ATOM     37  N   UNL     1      12.269  24.219  17.982  0.00  0.00    -0.214 NA
BRANCH   4   3
ATOM      1  C   UNL     1      14.683  22.404  14.234  0.00  0.00    +0.020 A 
ATOM      2  C   UNL     1      13.468  22.781  14.918  0.00  0.00    +0.013 A 
ATOM      3  C   UNL     1      13.395  22.759  16.373  0.00  0.00    +0.019 A 
ATOM     38  C   UNL     1      14.580  22.348  17.113  0.00  0.00    +0.120 A 
ATOM     39  N   UNL     1      15.735  21.989  16.427  0.00  0.00    -0.263 NA
ATOM     40  C   UNL     1      15.817  22.005  15.026  0.00  0.00    +0.111 A 
ENDBRANCH   4   3
ENDBRANCH  10   9
BRANCH  12  13
ATOM     13  N   UNL     1       8.031  29.316  20.327  0.00  0.00    -0.281 N 
ATOM     14  C   UNL     1       8.033  30.505  21.037  0.00  0.00    +0.248 C 
ATOM     30  O   UNL     1       8.415  30.620  22.192  0.00  0.00    -0.270 OA
ATOM     31  H   UNL     1       7.509  29.318  19.450  0.00  0.00    +0.155 HD
BRANCH  14  15
ATOM     15  C   UNL     1       7.523  31.744  20.373  0.00  0.00    +0.037 A 
ATOM     16  C   UNL     1       8.380  32.919  20.198  0.00  0.00    +0.013 A 
ATOM     17  C   UNL     1       7.858  34.107  19.569  0.00  0.00    +0.005 A 
ATOM     18  C   UNL     1       6.471  34.124  19.110  0.00  0.00    -0.033 A 
ATOM     28  C   UNL     1       5.645  32.942  19.292  0.00  0.00    +0.005 A 
ATOM     29  C   UNL     1       6.153  31.776  19.908  0.00  0.00    +0.013 A 
BRANCH  18  19
ATOM     19  C   UNL     1       5.824  35.355  18.448  0.00  0.00    +0.119 C 
BRANCH  19  20
ATOM     20  N   UNL     1       5.686  36.586  19.282  0.00  0.00    -0.302 NA
ATOM     21  C   UNL     1       4.599  36.438  20.350  0.00  0.00    +0.066 C 
ATOM     22  C   UNL     1       4.484  37.726  21.227  0.00  0.00    -0.064 C 
ATOM     23  N   UNL     1       4.197  38.929  20.327  0.00  0.00    +0.379 N 
ATOM     24  C   UNL     1       4.030  40.133  21.154  0.00  0.00    -0.096 C 
ATOM     25  H   UNL     1       3.229  38.739  19.807  0.00  0.00    -0.082 HD
ATOM     26  C   UNL     1       5.272  39.083  19.260  0.00  0.00    -0.064 C 
ATOM     27  C   UNL     1       5.399  37.786  18.413  0.00  0.00    +0.066 C 
ENDBRANCH  19  20
ENDBRANCH  18  19
ENDBRANCH  14  15
ENDBRANCH  12  13
TORSDOF 6
ENDMDL
MODEL 2
REMARK VINA RESULT:      -8.9      2.931     13.783
REMARK  Name = C:\Users\Docking\Desktop\test protocol\1iep_ligandH.pdb
REMARK  8 active torsions:
REMARK  status: ('A' for Active; 'I' for Inactive)
REMARK    1  A    between atoms: _5  and  _11
REMARK    2  A    between atoms: _19  and  _21
REMARK    3  A    between atoms: _22  and  _66
REMARK    4  A    between atoms: _27  and  _30
REMARK    5  A    between atoms: _32  and  _33
REMARK    6  A    between atoms: _38  and  _43
REMARK    7  A    between atoms: _43  and  _46
REMARK    8  A    between atoms: _53  and  _55
REMARK                            x       y       z     vdW  Elec       q    Type
REMARK                         _______ _______ _______ _____ _____    ______ ____
ROOT
ATOM     10  C   UNL     1       9.051  26.140  19.631  0.00  0.00    +0.038 A 
ATOM     11  C   UNL     1      10.298  25.857  19.017  0.00  0.00    +0.047 A 
ATOM     12  C   UNL     1      10.937  24.561  19.175  0.00  0.00    +0.035 A 
ATOM     32  C   UNL     1      10.277  23.573  19.963  0.00  0.00    +0.024 A 
ATOM     33  C   UNL     1       9.009  23.844  20.595  0.00  0.00    +0.007 A 
ATOM     34  C   UNL     1       8.375  25.122  20.444  0.00  0.00    -0.029 A 
ATOM     35  C   UNL     1       7.019  25.359  21.150  0.00  0.00    +0.045 C 
ENDROOT
BRANCH  10   9
ATOM      4  C   UNL     1       7.927  30.544  21.174  0.00  0.00    +0.077 A 
ATOM      5  C   UNL     1       8.498  30.301  22.467  0.00  0.00    +0.048 A 
ATOM      6  C   UNL     1       9.064  29.027  22.697  0.00  0.00    +0.116 A 
ATOM      7  N   UNL     1       9.055  28.075  21.701  0.00  0.00    -0.223 NA
ATOM      8  C   UNL     1       8.495  28.342  20.465  0.00  0.00    +0.220 A 
ATOM      9  N   UNL     1       8.482  27.402  19.445  0.00  0.00    -0.283 N 
ATOM     36  H   UNL     1       8.052  27.635  18.551  0.00  0.00    +0.155 HD
ATOM     37  N   UNL     1       7.946  29.550  20.221  0.00  0.00    -0.214 NA
BRANCH   4   3
ATOM      1  C   UNL     1       5.763  33.233  19.333  0.00  0.00    +0.020 A 
ATOM      2  C   UNL     1       6.347  31.957  19.675  0.00  0.00    +0.013 A 
ATOM      3  C   UNL     1       7.294  31.841  20.777  0.00  0.00    +0.019 A 
ATOM     38  C   UNL     1       7.632  33.047  21.519  0.00  0.00    +0.120 A 
ATOM     39  N   UNL     1       7.055  34.263  21.166  0.00  0.00    -0.263 NA
ATOM     40  C   UNL     1       6.144  34.386  20.107  0.00  0.00    +0.111 A 
ENDBRANCH   4   3
ENDBRANCH  10   9
BRANCH  12  13
ATOM     13  N   UNL     1      12.207  24.219  18.582  0.00  0.00    -0.281 N 
ATOM     14  C   UNL     1      12.451  23.340  17.539  0.00  0.00    +0.248 C 
ATOM     30  O   UNL     1      11.631  22.550  17.096  0.00  0.00    -0.270 OA
ATOM     31  H   UNL     1      13.025  24.680  18.980  0.00  0.00    +0.155 HD
BRANCH  14  15
ATOM     15  C   UNL     1      13.805  23.329  16.907  0.00  0.00    +0.037 A 
ATOM     16  C   UNL     1      15.020  23.489  17.710  0.00  0.00    +0.013 A 
ATOM     17  C   UNL     1      16.313  23.491  17.072  0.00  0.00    +0.005 A 
ATOM     18  C   UNL     1      16.397  23.332  15.623  0.00  0.00    -0.033 A 
ATOM     28  C   UNL     1      15.176  23.170  14.851  0.00  0.00    +0.005 A 
ATOM     29  C   UNL     1      13.907  23.168  15.472  0.00  0.00    +0.013 A 
BRANCH  18  19
ATOM     19  C   UNL     1      17.733  23.343  14.856  0.00  0.00    +0.119 C 
BRANCH  19  20
ATOM     20  N   UNL     1      17.878  22.384  13.720  0.00  0.00    -0.302 NA
ATOM     21  C   UNL     1      18.468  21.045  14.171  0.00  0.00    +0.066 C 
ATOM     22  C   UNL     1      18.592  20.046  12.975  0.00  0.00    -0.064 C 
ATOM     23  N   UNL     1      19.451  20.674  11.876  0.00  0.00    +0.379 N 
ATOM     24  C   UNL     1      19.617  19.715  10.775  0.00  0.00    -0.096 C 
ATOM     25  H   UNL     1      20.460  20.873  12.308  0.00  0.00    -0.082 HD
ATOM     26  C   UNL     1      18.872  22.008  11.424  0.00  0.00    -0.064 C 
ATOM     27  C   UNL     1      18.726  22.983  12.626  0.00  0.00    +0.066 C 
ENDBRANCH  19  20
ENDBRANCH  18  19
ENDBRANCH  14  15
ENDBRANCH  12  13
TORSDOF 6
ENDMDL
MODEL 3
REMARK VINA RESULT:      -8.8      7.695     14.897
REMARK  Name = C:\Users\Docking\Desktop\test protocol\1iep_ligandH.pdb
REMARK  8 active torsions:
REMARK  status: ('A' for Active; 'I' for Inactive)
REMARK    1  A    between atoms: _5  and  _11
REMARK    2  A    between atoms: _19  and  _21
REMARK    3  A    between atoms: _22  and  _66
REMARK    4  A    between atoms: _27  and  _30
REMARK    5  A    between atoms: _32  and  _33
REMARK    6  A    between atoms: _38  and  _43
REMARK    7  A    between atoms: _43  and  _46
REMARK    8  A    between atoms: _53  and  _55
REMARK                            x       y       z     vdW  Elec       q    Type
REMARK                         _______ _______ _______ _____ _____    ______ ____
ROOT
ATOM     10  C   UNL     1      15.616  22.437  14.617  0.00  0.00    +0.038 A 
ATOM     11  C   UNL     1      16.666  23.365  14.834  0.00  0.00    +0.047 A 
ATOM     12  C   UNL     1      18.032  23.061  14.437  0.00  0.00    +0.035 A 
ATOM     32  C   UNL     1      18.292  21.803  13.820  0.00  0.00    +0.024 A 
ATOM     33  C   UNL     1      17.236  20.847  13.593  0.00  0.00    +0.007 A 
ATOM     34  C   UNL     1      15.887  21.141  13.985  0.00  0.00    -0.029 A 
ATOM     35  C   UNL     1      14.796  20.076  13.724  0.00  0.00    +0.045 C 
ENDROOT
BRANCH  10   9
ATOM      4  C   UNL     1      12.449  23.859  17.932  0.00  0.00    +0.077 A 
ATOM      5  C   UNL     1      13.450  23.893  18.959  0.00  0.00    +0.048 A 
ATOM      6  C   UNL     1      14.766  23.531  18.595  0.00  0.00    +0.116 A 
ATOM      7  N   UNL     1      15.049  23.164  17.297  0.00  0.00    -0.223 NA
ATOM      8  C   UNL     1      14.059  23.140  16.331  0.00  0.00    +0.220 A 
ATOM      9  N   UNL     1      14.323  22.781  15.018  0.00  0.00    -0.283 N 
ATOM     36  H   UNL     1      13.564  22.769  14.337  0.00  0.00    +0.155 HD
ATOM     37  N   UNL     1      12.794  23.480  16.654  0.00  0.00    -0.214 NA
BRANCH   4   3
ATOM      1  C   UNL     1       9.170  25.875  18.627  0.00  0.00    +0.020 A 
ATOM      2  C   UNL     1      10.568  25.582  18.413  0.00  0.00    +0.013 A 
ATOM      3  C   UNL     1      11.013  24.218  18.161  0.00  0.00    +0.019 A 
ATOM     38  C   UNL     1      10.010  23.164  18.131  0.00  0.00    +0.120 A 
ATOM     39  N   UNL     1       8.671  23.476  18.342  0.00  0.00    -0.263 NA
ATOM     40  C   UNL     1       8.231  24.785  18.587  0.00  0.00    +0.111 A 
ENDBRANCH   4   3
ENDBRANCH  10   9
BRANCH  12  13
ATOM     13  N   UNL     1      19.141  23.960  14.638  0.00  0.00    -0.281 N 
ATOM     14  C   UNL     1      19.646  24.901  13.755  0.00  0.00    +0.248 C 
ATOM     30  O   UNL     1      19.352  24.964  12.571  0.00  0.00    -0.270 OA
ATOM     31  H   UNL     1      19.611  23.895  15.541  0.00  0.00    +0.155 HD
BRANCH  14  15
ATOM     15  C   UNL     1      20.630  25.908  14.258  0.00  0.00    +0.037 A 
ATOM     16  C   UNL     1      20.361  27.345  14.164  0.00  0.00    +0.013 A 
ATOM     17  C   UNL     1      21.334  28.295  14.641  0.00  0.00    +0.005 A 
ATOM     18  C   UNL     1      22.586  27.810  15.217  0.00  0.00    -0.033 A 
ATOM     28  C   UNL     1      22.825  26.379  15.302  0.00  0.00    +0.005 A 
ATOM     29  C   UNL     1      21.873  25.445  14.835  0.00  0.00    +0.013 A 
BRANCH  18  19
ATOM     19  C   UNL     1      23.690  28.753  15.731  0.00  0.00    +0.119 C 
BRANCH  19  20
ATOM     20  N   UNL     1      25.060  28.179  15.888  0.00  0.00    -0.302 NA
ATOM     21  C   UNL     1      25.513  28.165  17.351  0.00  0.00    +0.066 C 
ATOM     22  C   UNL     1      26.939  27.541  17.500  0.00  0.00    -0.064 C 
ATOM     23  N   UNL     1      27.928  28.324  16.634  0.00  0.00    +0.379 N 
ATOM     24  C   UNL     1      29.280  27.776  16.816  0.00  0.00    -0.096 C 
ATOM     25  H   UNL     1      27.937  29.377  17.000  0.00  0.00    -0.082 HD
ATOM     26  C   UNL     1      27.484  28.345  15.178  0.00  0.00    -0.064 C 
ATOM     27  C   UNL     1      26.054  28.940  15.045  0.00  0.00    +0.066 C 
ENDBRANCH  19  20
ENDBRANCH  18  19
ENDBRANCH  14  15
ENDBRANCH  12  13
TORSDOF 6
ENDMDL
MODEL 4
REMARK VINA RESULT:      -8.8      7.915     12.613
REMARK  Name = C:\Users\Docking\Desktop\test protocol\1iep_ligandH.pdb
REMARK  8 active torsions:
REMARK  status: ('A' for Active; 'I' for Inactive)
REMARK    1  A    between atoms: _5  and  _11
REMARK    2  A    between atoms: _19  and  _21
REMARK    3  A    between atoms: _22  and  _66
REMARK    4  A    between atoms: _27  and  _30
REMARK    5  A    between atoms: _32  and  _33
REMARK    6  A    between atoms: _38  and  _43
REMARK    7  A    between atoms: _43  and  _46
REMARK    8  A    between atoms: _53  and  _55
REMARK                            x       y       z     vdW  Elec       q    Type
REMARK                         _______ _______ _______ _____ _____    ______ ____
ROOT
ATOM     10  C   UNL     1      19.883  23.619  14.319  0.00  0.00    +0.038 A 
ATOM     11  C   UNL     1      18.700  23.814  15.077  0.00  0.00    +0.047 A 
ATOM     12  C   UNL     1      17.432  23.240  14.654  0.00  0.00    +0.035 A 
ATOM     32  C   UNL     1      17.406  22.469  13.456  0.00  0.00    +0.024 A 
ATOM     33  C   UNL     1      18.598  22.262  12.672  0.00  0.00    +0.007 A 
ATOM     34  C   UNL     1      19.851  22.828  13.083  0.00  0.00    -0.029 A 
ATOM     35  C   UNL     1      21.097  22.579  12.200  0.00  0.00    +0.045 C 
ENDROOT
BRANCH  10   9
ATOM      4  C   UNL     1      22.682  27.418  15.197  0.00  0.00    +0.077 A 
ATOM      5  C   UNL     1      21.701  28.333  14.688  0.00  0.00    +0.048 A 
ATOM      6  C   UNL     1      20.493  27.785  14.202  0.00  0.00    +0.116 A 
ATOM      7  N   UNL     1      20.291  26.422  14.230  0.00  0.00    -0.223 NA
ATOM      8  C   UNL     1      21.258  25.567  14.726  0.00  0.00    +0.220 A 
ATOM      9  N   UNL     1      21.073  24.194  14.771  0.00  0.00    -0.283 N 
ATOM     36  H   UNL     1      21.813  23.597  15.138  0.00  0.00    +0.155 HD
ATOM     37  N   UNL     1      22.421  26.066  15.194  0.00  0.00    -0.214 NA
BRANCH   4   3
ATOM      1  C   UNL     1      25.597  29.579  16.658  0.00  0.00    +0.020 A 
ATOM      2  C   UNL     1      24.301  29.220  16.131  0.00  0.00    +0.013 A 
ATOM      3  C   UNL     1      24.007  27.844  15.748  0.00  0.00    +0.019 A 
ATOM     38  C   UNL     1      25.055  26.848  15.914  0.00  0.00    +0.120 A 
ATOM     39  N   UNL     1      26.294  27.224  16.423  0.00  0.00    -0.263 NA
ATOM     40  C   UNL     1      26.589  28.544  16.793  0.00  0.00    +0.111 A 
ENDBRANCH   4   3
ENDBRANCH  10   9
BRANCH  12  13
ATOM     13  N   UNL     1      16.197  23.411  15.379  0.00  0.00    -0.281 N 
ATOM     14  C   UNL     1      15.749  22.697  16.478  0.00  0.00    +0.248 C 
ATOM     30  O   UNL     1      16.249  21.656  16.877  0.00  0.00    -0.270 OA
ATOM     31  H   UNL     1      15.578  24.147  15.040  0.00  0.00    +0.155 HD
BRANCH  14  15
ATOM     15  C   UNL     1      14.565  23.206  17.236  0.00  0.00    +0.037 A 
ATOM     16  C   UNL     1      13.215  23.138  16.671  0.00  0.00    +0.013 A 
ATOM     17  C   UNL     1      12.093  23.652  17.416  0.00  0.00    +0.005 A 
ATOM     18  C   UNL     1      12.317  24.237  18.735  0.00  0.00    -0.033 A 
ATOM     28  C   UNL     1      13.666  24.286  19.274  0.00  0.00    +0.005 A 
ATOM     29  C   UNL     1      14.768  23.785  18.547  0.00  0.00    +0.013 A 
BRANCH  18  19
ATOM     19  C   UNL     1      11.181  24.828  19.592  0.00  0.00    +0.119 C 
BRANCH  19  20
ATOM     20  N   UNL     1       9.863  24.126  19.558  0.00  0.00    -0.302 NA
ATOM     21  C   UNL     1       8.918  24.728  18.514  0.00  0.00    +0.066 C 
ATOM     22  C   UNL     1       7.553  23.968  18.477  0.00  0.00    -0.064 C 
ATOM     23  N   UNL     1       6.916  24.001  19.868  0.00  0.00    +0.379 N 
ATOM     24  C   UNL     1       5.605  23.338  19.823  0.00  0.00    -0.096 C 
ATOM     25  H   UNL     1       6.745  25.070  20.136  0.00  0.00    -0.082 HD
ATOM     26  C   UNL     1       7.850  23.407  20.912  0.00  0.00    -0.064 C 
ATOM     27  C   UNL     1       9.215  24.151  20.921  0.00  0.00    +0.066 C 
ENDBRANCH  19  20
ENDBRANCH  18  19
ENDBRANCH  14  15
ENDBRANCH  12  13
TORSDOF 6
ENDMDL
MODEL 5
REMARK VINA RESULT:      -8.8      6.283     12.104
REMARK  Name = C:\Users\Docking\Desktop\test protocol\1iep_ligandH.pdb
REMARK  8 active torsions:
REMARK  status: ('A' for Active; 'I' for Inactive)
REMARK    1  A    between atoms: _5  and  _11
REMARK    2  A    between atoms: _19  and  _21
REMARK    3  A    between atoms: _22  and  _66
REMARK    4  A    between atoms: _27  and  _30
REMARK    5  A    between atoms: _32  and  _33
REMARK    6  A    between atoms: _38  and  _43
REMARK    7  A    between atoms: _43  and  _46
REMARK    8  A    between atoms: _53  and  _55
REMARK                            x       y       z     vdW  Elec       q    Type
REMARK                         _______ _______ _______ _____ _____    ______ ____
ROOT
ATOM     10  C   UNL     1      19.812  23.529  14.309  0.00  0.00    +0.038 A 
ATOM     11  C   UNL     1      18.598  23.640  15.035  0.00  0.00    +0.047 A 
ATOM     12  C   UNL     1      17.363  23.064  14.528  0.00  0.00    +0.035 A 
ATOM     32  C   UNL     1      17.399  22.380  13.278  0.00  0.00    +0.024 A 
ATOM     33  C   UNL     1      18.624  22.259  12.526  0.00  0.00    +0.007 A 
ATOM     34  C   UNL     1      19.845  22.827  13.020  0.00  0.00    -0.029 A 
ATOM     35  C   UNL     1      21.127  22.672  12.169  0.00  0.00    +0.045 C 
ENDROOT
BRANCH  10   9
ATOM      4  C   UNL     1      22.658  27.293  15.185  0.00  0.00    +0.077 A 
ATOM      5  C   UNL     1      21.779  28.193  14.496  0.00  0.00    +0.048 A 
ATOM      6  C   UNL     1      20.609  27.646  13.924  0.00  0.00    +0.116 A 
ATOM      7  N   UNL     1      20.347  26.298  14.039  0.00  0.00    -0.223 NA
ATOM      8  C   UNL     1      21.216  25.458  14.709  0.00  0.00    +0.220 A 
ATOM      9  N   UNL     1      20.969  24.100  14.844  0.00  0.00    -0.283 N 
ATOM     36  H   UNL     1      21.639  23.512  15.339  0.00  0.00    +0.155 HD
ATOM     37  N   UNL     1      22.342  25.955  15.262  0.00  0.00    -0.214 NA
BRANCH   4   3
ATOM      1  C   UNL     1      25.485  29.471  16.787  0.00  0.00    +0.020 A 
ATOM      2  C   UNL     1      24.239  29.112  16.149  0.00  0.00    +0.013 A 
ATOM      3  C   UNL     1      23.933  27.720  15.844  0.00  0.00    +0.019 A 
ATOM     38  C   UNL     1      24.915  26.708  16.202  0.00  0.00    +0.120 A 
ATOM     39  N   UNL     1      26.106  27.084  16.815  0.00  0.00    -0.263 NA
ATOM     40  C   UNL     1      26.413  28.420  17.112  0.00  0.00    +0.111 A 
ENDBRANCH   4   3
ENDBRANCH  10   9
BRANCH  12  13
ATOM     13  N   UNL     1      16.099  23.152  15.216  0.00  0.00    -0.281 N 
ATOM     14  C   UNL     1      15.804  22.749  16.509  0.00  0.00    +0.248 C 
ATOM     30  O   UNL     1      16.533  22.053  17.199  0.00  0.00    -0.270 OA
ATOM     31  H   UNL     1      15.328  23.561  14.687  0.00  0.00    +0.155 HD
BRANCH  14  15
ATOM     15  C   UNL     1      14.504  23.168  17.117  0.00  0.00    +0.037 A 
ATOM     16  C   UNL     1      14.453  23.806  18.435  0.00  0.00    +0.013 A 
ATOM     17  C   UNL     1      13.184  24.185  19.006  0.00  0.00    +0.005 A 
ATOM     18  C   UNL     1      11.957  23.929  18.256  0.00  0.00    -0.033 A 
ATOM     28  C   UNL     1      12.037  23.300  16.948  0.00  0.00    +0.005 A 
ATOM     29  C   UNL     1      13.278  22.926  16.386  0.00  0.00    +0.013 A 
BRANCH  18  19
ATOM     19  C   UNL     1      10.558  24.281  18.797  0.00  0.00    +0.119 C 
BRANCH  19  20
ATOM     20  N   UNL     1      10.475  25.359  19.828  0.00  0.00    -0.302 NA
ATOM     21  C   UNL     1       9.419  25.054  20.894  0.00  0.00    +0.066 C 
ATOM     22  C   UNL     1       9.361  26.181  21.976  0.00  0.00    -0.064 C 
ATOM     23  N   UNL     1       9.074  27.522  21.298  0.00  0.00    +0.379 N 
ATOM     24  C   UNL     1       8.962  28.574  22.318  0.00  0.00    -0.096 C 
ATOM     25  H   UNL     1       8.087  27.438  20.787  0.00  0.00    -0.082 HD
ATOM     26  C   UNL     1      10.118  27.831  20.234  0.00  0.00    -0.064 C 
ATOM     27  C   UNL     1      10.188  26.691  19.180  0.00  0.00    +0.066 C 
ENDBRANCH  19  20
ENDBRANCH  18  19
ENDBRANCH  14  15
ENDBRANCH  12  13
TORSDOF 6
ENDMDL
