MODEL 1
REMARK VINA RESULT:      -7.2      0.000      0.000
REMARK  Name = C:\Users\Docking\Desktop\test protocol\1iep_ligandH.pdb
REMARK  8 active torsions:
REMARK  status: ('A' for Active; 'I' for Inactive)
REMARK    1  A    between atoms: _5  and  _11
REMARK    2  A    between atoms: _19  and  _21
REMARK    3  A    between atoms: _22  and  _66
REMARK    4  A    between atoms: _27  and  _30
REMARK    5  A    between atoms: _32  and  _33
REMARK    6  A    between atoms: _38  and  _43
REMARK    7  A    between atoms: _43  and  _46
REMARK    8  A    between atoms: _53  and  _55
REMARK                            x       y       z     vdW  Elec       q    Type
REMARK                         _______ _______ _______ _____ _____    ______ ____
ROOT
ATOM     10  C   UNL     1      13.018  -2.521  13.774  0.00  0.00    +0.038 A 
ATOM     11  C   UNL     1      12.594  -3.194  12.599  0.00  0.00    +0.047 A 
ATOM     12  C   UNL     1      13.400  -3.174  11.389  0.00  0.00    +0.035 A 
ATOM     32  C   UNL     1      14.634  -2.462  11.411  0.00  0.00    +0.024 A 
ATOM     33  C   UNL     1      15.080  -1.772  12.596  0.00  0.00    +0.007 A 
ATOM     34  C   UNL     1      14.288  -1.786  13.792  0.00  0.00    -0.029 A 
ATOM     35  C   UNL     1      14.812  -1.024  15.032  0.00  0.00    +0.045 C 
ENDROOT
BRANCH  10   9
ATOM      4  C   UNL     1      11.461  -4.675  17.772  0.00  0.00    +0.077 A 
ATOM      5  C   UNL     1      12.323  -5.804  17.569  0.00  0.00    +0.048 A 
ATOM      6  C   UNL     1      13.145  -5.795  16.420  0.00  0.00    +0.116 A 
ATOM      7  N   UNL     1      13.102  -4.731  15.546  0.00  0.00    -0.223 NA
ATOM      8  C   UNL     1      12.258  -3.658  15.770  0.00  0.00    +0.220 A 
ATOM      9  N   UNL     1      12.204  -2.574  14.908  0.00  0.00    -0.283 N 
ATOM     36  H   UNL     1      11.563  -1.805  15.105  0.00  0.00    +0.155 HD
ATOM     37  N   UNL     1      11.462  -3.643  16.859  0.00  0.00    -0.214 NA
BRANCH   4   3
ATOM      1  C   UNL     1       8.818  -5.439  20.551  0.00  0.00    +0.020 A 
ATOM      2  C   UNL     1       9.694  -5.626  19.418  0.00  0.00    +0.013 A 
ATOM      3  C   UNL     1      10.536  -4.536  18.940  0.00  0.00    +0.019 A 
ATOM     38  C   UNL     1      10.467  -3.260  19.637  0.00  0.00    +0.120 A 
ATOM     39  N   UNL     1       9.612  -3.110  20.725  0.00  0.00    -0.263 NA
ATOM     40  C   UNL     1       8.797  -4.151  21.193  0.00  0.00    +0.111 A 
ENDBRANCH   4   3
ENDBRANCH  10   9
BRANCH  12  13
ATOM     13  N   UNL     1      13.017  -3.831  10.164  0.00  0.00    -0.281 N 
ATOM     14  C   UNL     1      12.135  -3.380   9.195  0.00  0.00    +0.248 C 
ATOM     30  O   UNL     1      11.375  -2.435   9.339  0.00  0.00    -0.270 OA
ATOM     31  H   UNL     1      13.449  -4.739   9.989  0.00  0.00    +0.155 HD
BRANCH  14  15
ATOM     15  C   UNL     1      12.080  -4.092   7.882  0.00  0.00    +0.037 A 
ATOM     16  C   UNL     1      10.803  -4.506   7.295  0.00  0.00    +0.013 A 
ATOM     17  C   UNL     1      10.779  -5.206   6.035  0.00  0.00    +0.005 A 
ATOM     18  C   UNL     1      12.038  -5.495   5.352  0.00  0.00    -0.033 A 
ATOM     28  C   UNL     1      13.290  -5.067   5.954  0.00  0.00    +0.005 A 
ATOM     29  C   UNL     1      13.318  -4.382   7.189  0.00  0.00    +0.013 A 
BRANCH  18  19
ATOM     19  C   UNL     1      12.109  -6.255   4.015  0.00  0.00    +0.119 C 
BRANCH  19  20
ATOM     20  N   UNL     1      13.211  -5.887   3.076  0.00  0.00    -0.302 NA
ATOM     21  C   UNL     1      12.679  -5.472   1.701  0.00  0.00    +0.066 C 
ATOM     22  C   UNL     1      13.844  -5.069   0.739  0.00  0.00    -0.064 C 
ATOM     23  N   UNL     1      14.824  -6.236   0.612  0.00  0.00    +0.379 N 
ATOM     24  C   UNL     1      15.889  -5.881  -0.337  0.00  0.00    -0.096 C 
ATOM     25  H   UNL     1      14.265  -7.101   0.185  0.00  0.00    -0.082 HD
ATOM     26  C   UNL     1      15.355  -6.657   1.975  0.00  0.00    -0.064 C 
ATOM     27  C   UNL     1      14.188  -7.027   2.932  0.00  0.00    +0.066 C 
ENDBRANCH  19  20
ENDBRANCH  18  19
ENDBRANCH  14  15
ENDBRANCH  12  13
TORSDOF 6
ENDMDL
MODEL 2
REMARK VINA RESULT:      -7.1      7.012     13.390
REMARK  Name = C:\Users\Docking\Desktop\test protocol\1iep_ligandH.pdb
REMARK  8 active torsions:
REMARK  status: ('A' for Active; 'I' for Inactive)
REMARK    1  A    between atoms: _5  and  _11
REMARK    2  A    between atoms: _19  and  _21
REMARK    3  A    between atoms: _22  and  _66
REMARK    4  A    between atoms: _27  and  _30
REMARK    5  A    between atoms: _32  and  _33
REMARK    6  A    between atoms: _38  and  _43
REMARK    7  A    between atoms: _43  and  _46
REMARK    8  A    between atoms: _53  and  _55
REMARK                            x       y       z     vdW  Elec       q    Type
REMARK                         _______ _______ _______ _____ _____    ______ ____
ROOT
ATOM     10  C   UNL     1      13.239  -4.995  -0.074  0.00  0.00    +0.038 A 
ATOM     11  C   UNL     1      14.300  -5.840  -0.489  0.00  0.00    +0.047 A 
ATOM     12  C   UNL     1      14.477  -6.194  -1.889  0.00  0.00    +0.035 A 
ATOM     32  C   UNL     1      13.556  -5.668  -2.841  0.00  0.00    +0.024 A 
ATOM     33  C   UNL     1      12.470  -4.809  -2.436  0.00  0.00    +0.007 A 
ATOM     34  C   UNL     1      12.289  -4.458  -1.057  0.00  0.00    -0.029 A 
ATOM     35  C   UNL     1      11.104  -3.539  -0.680  0.00  0.00    +0.045 C 
ENDROOT
BRANCH  10   9
ATOM      4  C   UNL     1      12.135  -6.165   4.448  0.00  0.00    +0.077 A 
ATOM      5  C   UNL     1      11.745  -7.493   4.071  0.00  0.00    +0.048 A 
ATOM      6  C   UNL     1      11.836  -7.833   2.703  0.00  0.00    +0.116 A 
ATOM      7  N   UNL     1      12.286  -6.906   1.788  0.00  0.00    -0.223 NA
ATOM      8  C   UNL     1      12.653  -5.633   2.184  0.00  0.00    +0.220 A 
ATOM      9  N   UNL     1      13.116  -4.688   1.282  0.00  0.00    -0.283 N 
ATOM     36  H   UNL     1      13.370  -3.757   1.613  0.00  0.00    +0.155 HD
ATOM     37  N   UNL     1      12.574  -5.284   3.485  0.00  0.00    -0.214 NA
BRANCH   4   3
ATOM      1  C   UNL     1      11.046  -5.478   8.141  0.00  0.00    +0.020 A 
ATOM      2  C   UNL     1      11.034  -5.995   6.792  0.00  0.00    +0.013 A 
ATOM      3  C   UNL     1      12.098  -5.657   5.856  0.00  0.00    +0.019 A 
ATOM     38  C   UNL     1      13.168  -4.787   6.319  0.00  0.00    +0.120 A 
ATOM     39  N   UNL     1      13.152  -4.303   7.624  0.00  0.00    -0.263 NA
ATOM     40  C   UNL     1      12.133  -4.620   8.533  0.00  0.00    +0.111 A 
ENDBRANCH   4   3
ENDBRANCH  10   9
BRANCH  12  13
ATOM     13  N   UNL     1      15.531  -7.053  -2.368  0.00  0.00    -0.281 N 
ATOM     14  C   UNL     1      16.840  -6.711  -2.665  0.00  0.00    +0.248 C 
ATOM     30  O   UNL     1      17.248  -5.564  -2.768  0.00  0.00    -0.270 OA
ATOM     31  H   UNL     1      15.282  -8.033  -2.505  0.00  0.00    +0.155 HD
BRANCH  14  15
ATOM     15  C   UNL     1      17.837  -7.801  -2.896  0.00  0.00    +0.037 A 
ATOM     16  C   UNL     1      17.410  -9.169  -3.202  0.00  0.00    +0.013 A 
ATOM     17  C   UNL     1      18.392 -10.205  -3.404  0.00  0.00    +0.005 A 
ATOM     18  C   UNL     1      19.811  -9.875  -3.301  0.00  0.00    -0.033 A 
ATOM     28  C   UNL     1      20.207  -8.509  -3.002  0.00  0.00    +0.005 A 
ATOM     29  C   UNL     1      19.248  -7.491  -2.803  0.00  0.00    +0.013 A 
BRANCH  18  19
ATOM     19  C   UNL     1      20.928 -10.922  -3.480  0.00  0.00    +0.119 C 
BRANCH  19  20
ATOM     20  N   UNL     1      20.754 -11.927  -4.571  0.00  0.00    -0.302 NA
ATOM     21  C   UNL     1      20.843 -13.363  -4.048  0.00  0.00    +0.066 C 
ATOM     22  C   UNL     1      20.637 -14.402  -5.198  0.00  0.00    -0.064 C 
ATOM     23  N   UNL     1      21.676 -14.159  -6.293  0.00  0.00    +0.379 N 
ATOM     24  C   UNL     1      21.522 -15.170  -7.349  0.00  0.00    -0.096 C 
ATOM     25  H   UNL     1      22.685 -14.296  -5.838  0.00  0.00    -0.082 HD
ATOM     26  C   UNL     1      21.596 -12.732  -6.817  0.00  0.00    -0.064 C 
ATOM     27  C   UNL     1      21.773 -11.708  -5.661  0.00  0.00    +0.066 C 
ENDBRANCH  19  20
ENDBRANCH  18  19
ENDBRANCH  14  15
ENDBRANCH  12  13
TORSDOF 6
ENDMDL
MODEL 3
REMARK VINA RESULT:      -7.0      2.097      2.747
REMARK  Name = C:\Users\Docking\Desktop\test protocol\1iep_ligandH.pdb
REMARK  8 active torsions:
REMARK  status: ('A' for Active; 'I' for Inactive)
REMARK    1  A    between atoms: _5  and  _11
REMARK    2  A    between atoms: _19  and  _21
REMARK    3  A    between atoms: _22  and  _66
REMARK    4  A    between atoms: _27  and  _30
REMARK    5  A    between atoms: _32  and  _33
REMARK    6  A    between atoms: _38  and  _43
REMARK    7  A    between atoms: _43  and  _46
REMARK    8  A    between atoms: _53  and  _55
REMARK                            x       y       z     vdW  Elec       q    Type
REMARK                         _______ _______ _______ _____ _____    ______ ____
ROOT
ATOM     10  C   UNL     1      14.107  -1.887  14.853  0.00  0.00    +0.038 A 
ATOM     11  C   UNL     1      13.801  -2.540  13.632  0.00  0.00    +0.047 A 
ATOM     12  C   UNL     1      13.677  -1.793  12.390  0.00  0.00    +0.035 A 
ATOM     32  C   UNL     1      13.873  -0.382  12.428  0.00  0.00    +0.024 A 
ATOM     33  C   UNL     1      14.184   0.298  13.661  0.00  0.00    +0.007 A 
ATOM     34  C   UNL     1      14.305  -0.433  14.889  0.00  0.00    -0.029 A 
ATOM     35  C   UNL     1      14.634   0.349  16.183  0.00  0.00    +0.045 C 
ENDROOT
BRANCH  10   9
ATOM      4  C   UNL     1      12.175  -4.308  18.521  0.00  0.00    +0.077 A 
ATOM      5  C   UNL     1      10.840  -3.997  18.099  0.00  0.00    +0.048 A 
ATOM      6  C   UNL     1      10.693  -3.206  16.938  0.00  0.00    +0.116 A 
ATOM      7  N   UNL     1      11.806  -2.764  16.256  0.00  0.00    -0.223 NA
ATOM      8  C   UNL     1      13.080  -3.080  16.691  0.00  0.00    +0.220 A 
ATOM      9  N   UNL     1      14.214  -2.653  16.016  0.00  0.00    -0.283 N 
ATOM     36  H   UNL     1      15.136  -2.902  16.373  0.00  0.00    +0.155 HD
ATOM     37  N   UNL     1      13.247  -3.833  17.798  0.00  0.00    -0.214 NA
BRANCH   4   3
ATOM      1  C   UNL     1      11.834  -6.618  21.659  0.00  0.00    +0.020 A 
ATOM      2  C   UNL     1      11.473  -5.830  20.503  0.00  0.00    +0.013 A 
ATOM      3  C   UNL     1      12.493  -5.136  19.726  0.00  0.00    +0.019 A 
ATOM     38  C   UNL     1      13.880  -5.263  20.149  0.00  0.00    +0.120 A 
ATOM     39  N   UNL     1      14.197  -6.027  21.267  0.00  0.00    -0.263 NA
ATOM     40  C   UNL     1      13.224  -6.697  22.023  0.00  0.00    +0.111 A 
ENDBRANCH   4   3
ENDBRANCH  10   9
BRANCH  12  13
ATOM     13  N   UNL     1      13.360  -2.400  11.121  0.00  0.00    -0.281 N 
ATOM     14  C   UNL     1      14.133  -3.280  10.381  0.00  0.00    +0.248 C 
ATOM     30  O   UNL     1      15.313  -3.513  10.597  0.00  0.00    -0.270 OA
ATOM     31  H   UNL     1      12.455  -2.152  10.720  0.00  0.00    +0.155 HD
BRANCH  14  15
ATOM     15  C   UNL     1      13.509  -3.993   9.225  0.00  0.00    +0.037 A 
ATOM     16  C   UNL     1      14.290  -4.340   8.035  0.00  0.00    +0.013 A 
ATOM     17  C   UNL     1      13.660  -5.012   6.927  0.00  0.00    +0.005 A 
ATOM     18  C   UNL     1      12.240  -5.344   7.005  0.00  0.00    -0.033 A 
ATOM     28  C   UNL     1      11.489  -4.993   8.199  0.00  0.00    +0.005 A 
ATOM     29  C   UNL     1      12.104  -4.333   9.287  0.00  0.00    +0.013 A 
BRANCH  18  19
ATOM     19  C   UNL     1      11.480  -6.042   5.861  0.00  0.00    +0.119 C 
BRANCH  19  20
ATOM     20  N   UNL     1      12.116  -6.029   4.510  0.00  0.00    -0.302 NA
ATOM     21  C   UNL     1      11.701  -4.803   3.692  0.00  0.00    +0.066 C 
ATOM     22  C   UNL     1      12.392  -4.794   2.290  0.00  0.00    -0.064 C 
ATOM     23  N   UNL     1      12.047  -6.084   1.545  0.00  0.00    +0.379 N 
ATOM     24  C   UNL     1      12.648  -6.053   0.204  0.00  0.00    -0.096 C 
ATOM     25  H   UNL     1      10.940  -6.116   1.419  0.00  0.00    -0.082 HD
ATOM     26  C   UNL     1      12.454  -7.309   2.353  0.00  0.00    -0.064 C 
ATOM     27  C   UNL     1      11.784  -7.293   3.755  0.00  0.00    +0.066 C 
ENDBRANCH  19  20
ENDBRANCH  18  19
ENDBRANCH  14  15
ENDBRANCH  12  13
TORSDOF 6
ENDMDL
MODEL 4
REMARK VINA RESULT:      -7.0     18.836     21.067
REMARK  Name = C:\Users\Docking\Desktop\test protocol\1iep_ligandH.pdb
REMARK  8 active torsions:
REMARK  status: ('A' for Active; 'I' for Inactive)
REMARK    1  A    between atoms: _5  and  _11
REMARK    2  A    between atoms: _19  and  _21
REMARK    3  A    between atoms: _22  and  _66
REMARK    4  A    between atoms: _27  and  _30
REMARK    5  A    between atoms: _32  and  _33
REMARK    6  A    between atoms: _38  and  _43
REMARK    7  A    between atoms: _43  and  _46
REMARK    8  A    between atoms: _53  and  _55
REMARK                            x       y       z     vdW  Elec       q    Type
REMARK                         _______ _______ _______ _____ _____    ______ ____
ROOT
ATOM     10  C   UNL     1       9.730 -15.976  -3.854  0.00  0.00    +0.038 A 
ATOM     11  C   UNL     1      11.078 -16.264  -4.188  0.00  0.00    +0.047 A 
ATOM     12  C   UNL     1      12.107 -15.238  -4.116  0.00  0.00    +0.035 A 
ATOM     32  C   UNL     1      11.728 -13.929  -3.698  0.00  0.00    +0.024 A 
ATOM     33  C   UNL     1      10.362 -13.619  -3.356  0.00  0.00    +0.007 A 
ATOM     34  C   UNL     1       9.342 -14.627  -3.427  0.00  0.00    -0.029 A 
ATOM     35  C   UNL     1       7.893 -14.236  -3.055  0.00  0.00    +0.045 C 
ENDROOT
BRANCH  10   9
ATOM      4  C   UNL     1       7.173 -19.551  -1.924  0.00  0.00    +0.077 A 
ATOM      5  C   UNL     1       7.795 -19.383  -0.643  0.00  0.00    +0.048 A 
ATOM      6  C   UNL     1       8.774 -18.371  -0.524  0.00  0.00    +0.116 A 
ATOM      7  N   UNL     1       9.097 -17.590  -1.612  0.00  0.00    -0.223 NA
ATOM      8  C   UNL     1       8.479 -17.779  -2.834  0.00  0.00    +0.220 A 
ATOM      9  N   UNL     1       8.784 -17.000  -3.940  0.00  0.00    -0.283 N 
ATOM     36  H   UNL     1       8.311 -17.176  -4.826  0.00  0.00    +0.155 HD
ATOM     37  N   UNL     1       7.543 -18.740  -2.974  0.00  0.00    -0.214 NA
BRANCH   4   3
ATOM      1  C   UNL     1       5.373 -22.876  -2.925  0.00  0.00    +0.020 A 
ATOM      2  C   UNL     1       6.429 -21.924  -2.667  0.00  0.00    +0.013 A 
ATOM      3  C   UNL     1       6.119 -20.576  -2.207  0.00  0.00    +0.019 A 
ATOM     38  C   UNL     1       4.721 -20.221  -2.017  0.00  0.00    +0.120 A 
ATOM     39  N   UNL     1       3.726 -21.158  -2.275  0.00  0.00    -0.263 NA
ATOM     40  C   UNL     1       4.011 -22.458  -2.719  0.00  0.00    +0.111 A 
ENDBRANCH   4   3
ENDBRANCH  10   9
BRANCH  12  13
ATOM     13  N   UNL     1      13.490 -15.470  -4.450  0.00  0.00    -0.281 N 
ATOM     14  C   UNL     1      14.014 -15.901  -5.658  0.00  0.00    +0.248 C 
ATOM     30  O   UNL     1      13.349 -16.361  -6.575  0.00  0.00    -0.270 OA
ATOM     31  H   UNL     1      14.166 -15.294  -3.706  0.00  0.00    +0.155 HD
BRANCH  14  15
ATOM     15  C   UNL     1      15.491 -15.824  -5.874  0.00  0.00    +0.037 A 
ATOM     16  C   UNL     1      16.346 -17.002  -5.705  0.00  0.00    +0.013 A 
ATOM     17  C   UNL     1      17.770 -16.897  -5.902  0.00  0.00    +0.005 A 
ATOM     18  C   UNL     1      18.348 -15.607  -6.272  0.00  0.00    -0.033 A 
ATOM     28  C   UNL     1      17.476 -14.456  -6.437  0.00  0.00    +0.005 A 
ATOM     29  C   UNL     1      16.080 -14.555  -6.244  0.00  0.00    +0.013 A 
BRANCH  18  19
ATOM     19  C   UNL     1      19.859 -15.397  -6.482  0.00  0.00    +0.119 C 
BRANCH  19  20
ATOM     20  N   UNL     1      20.362 -13.991  -6.471  0.00  0.00    -0.302 NA
ATOM     21  C   UNL     1      21.497 -13.779  -7.476  0.00  0.00    +0.066 C 
ATOM     22  C   UNL     1      21.997 -12.298  -7.467  0.00  0.00    -0.064 C 
ATOM     23  N   UNL     1      22.448 -11.923  -6.055  0.00  0.00    +0.379 N 
ATOM     24  C   UNL     1      22.972 -10.550  -6.055  0.00  0.00    -0.096 C 
ATOM     25  H   UNL     1      23.285 -12.605  -5.776  0.00  0.00    -0.082 HD
ATOM     26  C   UNL     1      21.326 -12.134  -5.048  0.00  0.00    -0.064 C 
ATOM     27  C   UNL     1      20.817 -13.602  -5.086  0.00  0.00    +0.066 C 
ENDBRANCH  19  20
ENDBRANCH  18  19
ENDBRANCH  14  15
ENDBRANCH  12  13
TORSDOF 6
ENDMDL
MODEL 5
REMARK VINA RESULT:      -7.0     21.030     23.469
REMARK  Name = C:\Users\Docking\Desktop\test protocol\1iep_ligandH.pdb
REMARK  8 active torsions:
REMARK  status: ('A' for Active; 'I' for Inactive)
REMARK    1  A    between atoms: _5  and  _11
REMARK    2  A    between atoms: _19  and  _21
REMARK    3  A    between atoms: _22  and  _66
REMARK    4  A    between atoms: _27  and  _30
REMARK    5  A    between atoms: _32  and  _33
REMARK    6  A    between atoms: _38  and  _43
REMARK    7  A    between atoms: _43  and  _46
REMARK    8  A    between atoms: _53  and  _55
REMARK                            x       y       z     vdW  Elec       q    Type
REMARK                         _______ _______ _______ _____ _____    ______ ____
ROOT
ATOM     10  C   UNL     1      -1.079 -21.622  20.018  0.00  0.00    +0.038 A 
ATOM     11  C   UNL     1      -1.207 -22.120  18.697  0.00  0.00    +0.047 A 
ATOM     12  C   UNL     1      -0.665 -23.417  18.325  0.00  0.00    +0.035 A 
ATOM     32  C   UNL     1       0.000 -24.183  19.327  0.00  0.00    +0.024 A 
ATOM     33  C   UNL     1       0.141 -23.692  20.675  0.00  0.00    +0.007 A 
ATOM     34  C   UNL     1      -0.390 -22.412  21.046  0.00  0.00    -0.029 A 
ATOM     35  C   UNL     1      -0.205 -21.933  22.505  0.00  0.00    +0.045 C 
ENDROOT
BRANCH  10   9
ATOM      4  C   UNL     1      -0.656 -16.899  20.765  0.00  0.00    +0.077 A 
ATOM      5  C   UNL     1       0.764 -16.935  20.564  0.00  0.00    +0.048 A 
ATOM      6  C   UNL     1       1.347 -18.189  20.278  0.00  0.00    +0.116 A 
ATOM      7  N   UNL     1       0.560 -19.317  20.200  0.00  0.00    -0.223 NA
ATOM      8  C   UNL     1      -0.806 -19.249  20.401  0.00  0.00    +0.220 A 
ATOM      9  N   UNL     1      -1.618 -20.369  20.320  0.00  0.00    -0.283 N 
ATOM     36  H   UNL     1      -2.621 -20.278  20.482  0.00  0.00    +0.155 HD
ATOM     37  N   UNL     1      -1.388 -18.063  20.677  0.00  0.00    -0.214 NA
BRANCH   4   3
ATOM      1  C   UNL     1      -1.557 -13.188  21.610  0.00  0.00    +0.020 A 
ATOM      2  C   UNL     1      -0.773 -14.366  21.318  0.00  0.00    +0.013 A 
ATOM      3  C   UNL     1      -1.420 -15.649  21.072  0.00  0.00    +0.019 A 
ATOM     38  C   UNL     1      -2.873 -15.706  21.130  0.00  0.00    +0.120 A 
ATOM     39  N   UNL     1      -3.601 -14.555  21.415  0.00  0.00    -0.263 NA
ATOM     40  C   UNL     1      -2.990 -13.316  21.654  0.00  0.00    +0.111 A 
ENDBRANCH   4   3
ENDBRANCH  10   9
BRANCH  12  13
ATOM     13  N   UNL     1      -0.757 -23.971  16.997  0.00  0.00    -0.281 N 
ATOM     14  C   UNL     1      -1.898 -24.358  16.314  0.00  0.00    +0.248 C 
ATOM     30  O   UNL     1      -3.001 -24.486  16.826  0.00  0.00    -0.270 OA
ATOM     31  H   UNL     1       0.125 -24.092  16.501  0.00  0.00    +0.155 HD
BRANCH  14  15
ATOM     15  C   UNL     1      -1.798 -24.661  14.853  0.00  0.00    +0.037 A 
ATOM     16  C   UNL     1      -0.519 -24.566  14.144  0.00  0.00    +0.013 A 
ATOM     17  C   UNL     1      -0.453 -24.847  12.732  0.00  0.00    +0.005 A 
ATOM     18  C   UNL     1      -1.671 -25.227  12.020  0.00  0.00    -0.033 A 
ATOM     28  C   UNL     1      -2.925 -25.318  12.749  0.00  0.00    +0.005 A 
ATOM     29  C   UNL     1      -2.994 -25.043  14.133  0.00  0.00    +0.013 A 
BRANCH  18  19
ATOM     19  C   UNL     1      -1.697 -25.524  10.508  0.00  0.00    +0.119 C 
BRANCH  19  20
ATOM     20  N   UNL     1      -2.843 -24.974   9.724  0.00  0.00    -0.302 NA
ATOM     21  C   UNL     1      -3.068 -25.744   8.420  0.00  0.00    +0.066 C 
ATOM     22  C   UNL     1      -4.284 -25.169   7.622  0.00  0.00    -0.064 C 
ATOM     23  N   UNL     1      -4.050 -23.684   7.340  0.00  0.00    +0.379 N 
ATOM     24  C   UNL     1      -5.164 -23.155   6.541  0.00  0.00    -0.096 C 
ATOM     25  H   UNL     1      -3.122 -23.599   6.727  0.00  0.00    -0.082 HD
ATOM     26  C   UNL     1      -3.822 -22.911   8.632  0.00  0.00    -0.064 C 
ATOM     27  C   UNL     1      -2.630 -23.509   9.431  0.00  0.00    +0.066 C 
ENDBRANCH  19  20
ENDBRANCH  18  19
ENDBRANCH  14  15
ENDBRANCH  12  13
TORSDOF 6
ENDMDL
