MODEL 1
REMARK VINA RESULT:      -8.9      0.000      0.000
REMARK  Name = C:\Users\Docking\Desktop\test protocol\1iep_ligandH.pdb
REMARK  8 active torsions:
REMARK  status: ('A' for Active; 'I' for Inactive)
REMARK    1  A    between atoms: _5  and  _11
REMARK    2  A    between atoms: _19  and  _21
REMARK    3  A    between atoms: _22  and  _66
REMARK    4  A    between atoms: _27  and  _30
REMARK    5  A    between atoms: _32  and  _33
REMARK    6  A    between atoms: _38  and  _43
REMARK    7  A    between atoms: _43  and  _46
REMARK    8  A    between atoms: _53  and  _55
REMARK                            x       y       z     vdW  Elec       q    Type
REMARK                         _______ _______ _______ _____ _____    ______ ____
ROOT
ATOM     10  C   UNL     1       2.438   4.372  27.370  0.00  0.00    +0.038 A 
ATOM     11  C   UNL     1       2.591   3.586  26.200  0.00  0.00    +0.047 A 
ATOM     12  C   UNL     1       3.897   3.392  25.588  0.00  0.00    +0.035 A 
ATOM     32  C   UNL     1       5.026   4.012  26.197  0.00  0.00    +0.024 A 
ATOM     33  C   UNL     1       4.889   4.816  27.387  0.00  0.00    +0.007 A 
ATOM     34  C   UNL     1       3.603   5.012  27.993  0.00  0.00    -0.029 A 
ATOM     35  C   UNL     1       3.514   5.889  29.264  0.00  0.00    +0.045 C 
ENDROOT
BRANCH  10   9
ATOM      4  C   UNL     1      -1.840   6.538  27.589  0.00  0.00    +0.077 A 
ATOM      5  C   UNL     1      -1.491   7.461  26.547  0.00  0.00    +0.048 A 
ATOM      6  C   UNL     1      -0.199   7.350  25.987  0.00  0.00    +0.116 A 
ATOM      7  N   UNL     1       0.671   6.383  26.441  0.00  0.00    -0.223 NA
ATOM      8  C   UNL     1       0.305   5.509  27.448  0.00  0.00    +0.220 A 
ATOM      9  N   UNL     1       1.161   4.525  27.915  0.00  0.00    -0.283 N 
ATOM     36  H   UNL     1       0.856   3.904  28.665  0.00  0.00    +0.155 HD
ATOM     37  N   UNL     1      -0.923   5.596  28.001  0.00  0.00    -0.214 NA
BRANCH   4   3
ATOM      1  C   UNL     1      -5.354   5.432  28.903  0.00  0.00    +0.020 A 
ATOM      2  C   UNL     1      -4.082   5.392  28.220  0.00  0.00    +0.013 A 
ATOM      3  C   UNL     1      -3.169   6.527  28.278  0.00  0.00    +0.019 A 
ATOM     38  C   UNL     1      -3.576   7.696  29.043  0.00  0.00    +0.120 A 
ATOM     39  N   UNL     1      -4.808   7.706  29.690  0.00  0.00    -0.263 NA
ATOM     40  C   UNL     1      -5.695   6.621  29.640  0.00  0.00    +0.111 A 
ENDBRANCH   4   3
ENDBRANCH  10   9
BRANCH  12  13
ATOM     13  N   UNL     1       4.112   2.611  24.396  0.00  0.00    -0.281 N 
ATOM     14  C   UNL     1       5.182   2.674  23.518  0.00  0.00    +0.248 C 
ATOM     30  O   UNL     1       6.018   3.565  23.511  0.00  0.00    -0.270 OA
ATOM     31  H   UNL     1       3.387   1.929  24.171  0.00  0.00    +0.155 HD
BRANCH  14  15
ATOM     15  C   UNL     1       5.339   1.598  22.492  0.00  0.00    +0.037 A 
ATOM     16  C   UNL     1       4.617   0.328  22.607  0.00  0.00    +0.013 A 
ATOM     17  C   UNL     1       4.799  -0.699  21.612  0.00  0.00    +0.005 A 
ATOM     18  C   UNL     1       5.706  -0.459  20.492  0.00  0.00    -0.033 A 
ATOM     28  C   UNL     1       6.405   0.812  20.400  0.00  0.00    +0.005 A 
ATOM     29  C   UNL     1       6.230   1.821  21.374  0.00  0.00    +0.013 A 
BRANCH  18  19
ATOM     19  C   UNL     1       5.978  -1.506  19.396  0.00  0.00    +0.119 C 
BRANCH  19  20
ATOM     20  N   UNL     1       4.985  -1.605  18.284  0.00  0.00    -0.302 NA
ATOM     21  C   UNL     1       4.210  -2.925  18.322  0.00  0.00    +0.066 C 
ATOM     22  C   UNL     1       3.161  -3.003  17.165  0.00  0.00    -0.064 C 
ATOM     23  N   UNL     1       3.873  -2.830  15.822  0.00  0.00    +0.379 N 
ATOM     24  C   UNL     1       2.897  -2.960  14.730  0.00  0.00    -0.096 C 
ATOM     25  H   UNL     1       4.608  -3.662  15.720  0.00  0.00    -0.082 HD
ATOM     26  C   UNL     1       4.648  -1.521  15.778  0.00  0.00    -0.064 C 
ATOM     27  C   UNL     1       5.667  -1.442  16.948  0.00  0.00    +0.066 C 
ENDBRANCH  19  20
ENDBRANCH  18  19
ENDBRANCH  14  15
ENDBRANCH  12  13
TORSDOF 6
ENDMDL
MODEL 2
REMARK VINA RESULT:      -8.6      3.796     12.830
REMARK  Name = C:\Users\Docking\Desktop\test protocol\1iep_ligandH.pdb
REMARK  8 active torsions:
REMARK  status: ('A' for Active; 'I' for Inactive)
REMARK    1  A    between atoms: _5  and  _11
REMARK    2  A    between atoms: _19  and  _21
REMARK    3  A    between atoms: _22  and  _66
REMARK    4  A    between atoms: _27  and  _30
REMARK    5  A    between atoms: _32  and  _33
REMARK    6  A    between atoms: _38  and  _43
REMARK    7  A    between atoms: _43  and  _46
REMARK    8  A    between atoms: _53  and  _55
REMARK                            x       y       z     vdW  Elec       q    Type
REMARK                         _______ _______ _______ _____ _____    ______ ____
ROOT
ATOM     10  C   UNL     1       6.619   1.125  24.489  0.00  0.00    +0.038 A 
ATOM     11  C   UNL     1       5.335   1.609  24.845  0.00  0.00    +0.047 A 
ATOM     12  C   UNL     1       4.924   2.965  24.516  0.00  0.00    +0.035 A 
ATOM     32  C   UNL     1       5.846   3.801  23.821  0.00  0.00    +0.024 A 
ATOM     33  C   UNL     1       7.156   3.325  23.452  0.00  0.00    +0.007 A 
ATOM     34  C   UNL     1       7.568   1.989  23.776  0.00  0.00    -0.029 A 
ATOM     35  C   UNL     1       8.987   1.535  23.362  0.00  0.00    +0.045 C 
ENDROOT
BRANCH  10   9
ATOM      4  C   UNL     1       6.438  -3.618  23.777  0.00  0.00    +0.077 A 
ATOM      5  C   UNL     1       5.566  -3.475  22.647  0.00  0.00    +0.048 A 
ATOM      6  C   UNL     1       5.182  -2.164  22.286  0.00  0.00    +0.116 A 
ATOM      7  N   UNL     1       5.642  -1.084  23.008  0.00  0.00    -0.223 NA
ATOM      8  C   UNL     1       6.480  -1.257  24.094  0.00  0.00    +0.220 A 
ATOM      9  N   UNL     1       6.961  -0.185  24.830  0.00  0.00    -0.283 N 
ATOM     36  H   UNL     1       7.572  -0.356  25.629  0.00  0.00    +0.155 HD
ATOM     37  N   UNL     1       6.860  -2.499  24.460  0.00  0.00    -0.214 NA
BRANCH   4   3
ATOM      1  C   UNL     1       7.735  -7.305  23.933  0.00  0.00    +0.020 A 
ATOM      2  C   UNL     1       7.259  -6.051  23.397  0.00  0.00    +0.013 A 
ATOM      3  C   UNL     1       6.934  -4.938  24.280  0.00  0.00    +0.019 A 
ATOM     38  C   UNL     1       7.105  -5.128  25.713  0.00  0.00    +0.120 A 
ATOM     39  N   UNL     1       7.564  -6.347  26.201  0.00  0.00    -0.263 NA
ATOM     40  C   UNL     1       7.878  -7.426  25.361  0.00  0.00    +0.111 A 
ENDBRANCH   4   3
ENDBRANCH  10   9
BRANCH  12  13
ATOM     13  N   UNL     1       3.635   3.515  24.859  0.00  0.00    -0.281 N 
ATOM     14  C   UNL     1       3.180   3.901  26.108  0.00  0.00    +0.248 C 
ATOM     30  O   UNL     1       3.739   3.633  27.161  0.00  0.00    -0.270 OA
ATOM     31  H   UNL     1       2.980   3.633  24.086  0.00  0.00    +0.155 HD
BRANCH  14  15
ATOM     15  C   UNL     1       1.912   4.687  26.203  0.00  0.00    +0.037 A 
ATOM     16  C   UNL     1       1.355   5.375  25.035  0.00  0.00    +0.013 A 
ATOM     17  C   UNL     1       0.140   6.140  25.158  0.00  0.00    +0.005 A 
ATOM     18  C   UNL     1      -0.527   6.221  26.456  0.00  0.00    -0.033 A 
ATOM     28  C   UNL     1       0.044   5.526  27.596  0.00  0.00    +0.005 A 
ATOM     29  C   UNL     1       1.236   4.775  27.480  0.00  0.00    +0.013 A 
BRANCH  18  19
ATOM     19  C   UNL     1      -1.816   7.033  26.684  0.00  0.00    +0.119 C 
BRANCH  19  20
ATOM     20  N   UNL     1      -1.960   7.733  27.995  0.00  0.00    -0.302 NA
ATOM     21  C   UNL     1      -3.098   7.148  28.837  0.00  0.00    +0.066 C 
ATOM     22  C   UNL     1      -3.220   7.878  30.214  0.00  0.00    -0.064 C 
ATOM     23  N   UNL     1      -3.435   9.374  29.979  0.00  0.00    +0.379 N 
ATOM     24  C   UNL     1      -3.607  10.054  31.270  0.00  0.00    -0.096 C 
ATOM     25  H   UNL     1      -4.382   9.493  29.404  0.00  0.00    -0.082 HD
ATOM     26  C   UNL     1      -2.309   9.963  29.140  0.00  0.00    -0.064 C 
ATOM     27  C   UNL     1      -2.178   9.212  27.786  0.00  0.00    +0.066 C 
ENDBRANCH  19  20
ENDBRANCH  18  19
ENDBRANCH  14  15
ENDBRANCH  12  13
TORSDOF 6
ENDMDL
MODEL 3
REMARK VINA RESULT:      -8.6      5.887     14.414
REMARK  Name = C:\Users\Docking\Desktop\test protocol\1iep_ligandH.pdb
REMARK  8 active torsions:
REMARK  status: ('A' for Active; 'I' for Inactive)
REMARK    1  A    between atoms: _5  and  _11
REMARK    2  A    between atoms: _19  and  _21
REMARK    3  A    between atoms: _22  and  _66
REMARK    4  A    between atoms: _27  and  _30
REMARK    5  A    between atoms: _32  and  _33
REMARK    6  A    between atoms: _38  and  _43
REMARK    7  A    between atoms: _43  and  _46
REMARK    8  A    between atoms: _53  and  _55
REMARK                            x       y       z     vdW  Elec       q    Type
REMARK                         _______ _______ _______ _____ _____    ______ ____
ROOT
ATOM     10  C   UNL     1      -2.690   7.118  28.119  0.00  0.00    +0.038 A 
ATOM     11  C   UNL     1      -3.752   6.275  28.536  0.00  0.00    +0.047 A 
ATOM     12  C   UNL     1      -4.917   6.815  29.220  0.00  0.00    +0.035 A 
ATOM     32  C   UNL     1      -4.968   8.218  29.462  0.00  0.00    +0.024 A 
ATOM     33  C   UNL     1      -3.897   9.089  29.046  0.00  0.00    +0.007 A 
ATOM     34  C   UNL     1      -2.744   8.562  28.373  0.00  0.00    -0.029 A 
ATOM     35  C   UNL     1      -1.623   9.542  27.956  0.00  0.00    +0.045 C 
ENDROOT
BRANCH  10   9
ATOM      4  C   UNL     1       1.765   5.330  28.095  0.00  0.00    +0.077 A 
ATOM      5  C   UNL     1       1.936   5.581  29.498  0.00  0.00    +0.048 A 
ATOM      6  C   UNL     1       0.857   6.178  30.187  0.00  0.00    +0.116 A 
ATOM      7  N   UNL     1      -0.303   6.496  29.514  0.00  0.00    -0.223 NA
ATOM      8  C   UNL     1      -0.435   6.242  28.161  0.00  0.00    +0.220 A 
ATOM      9  N   UNL     1      -1.596   6.546  27.466  0.00  0.00    -0.283 N 
ATOM     36  H   UNL     1      -1.651   6.350  26.467  0.00  0.00    +0.155 HD
ATOM     37  N   UNL     1       0.582   5.674  27.480  0.00  0.00    -0.214 NA
BRANCH   4   3
ATOM      1  C   UNL     1       3.546   3.332  25.244  0.00  0.00    +0.020 A 
ATOM      2  C   UNL     1       2.495   3.916  26.045  0.00  0.00    +0.013 A 
ATOM      3  C   UNL     1       2.813   4.702  27.230  0.00  0.00    +0.019 A 
ATOM     38  C   UNL     1       4.214   4.880  27.580  0.00  0.00    +0.120 A 
ATOM     39  N   UNL     1       5.204   4.304  26.790  0.00  0.00    -0.263 NA
ATOM     40  C   UNL     1       4.911   3.544  25.648  0.00  0.00    +0.111 A 
ENDBRANCH   4   3
ENDBRANCH  10   9
BRANCH  12  13
ATOM     13  N   UNL     1      -6.022   6.007  29.674  0.00  0.00    -0.281 N 
ATOM     14  C   UNL     1      -5.975   4.847  30.429  0.00  0.00    +0.248 C 
ATOM     30  O   UNL     1      -4.958   4.206  30.650  0.00  0.00    -0.270 OA
ATOM     31  H   UNL     1      -6.951   6.330  29.405  0.00  0.00    +0.155 HD
BRANCH  14  15
ATOM     15  C   UNL     1      -7.244   4.312  31.011  0.00  0.00    +0.037 A 
ATOM     16  C   UNL     1      -7.971   5.045  32.050  0.00  0.00    +0.013 A 
ATOM     17  C   UNL     1      -9.184   4.499  32.606  0.00  0.00    +0.005 A 
ATOM     18  C   UNL     1      -9.677   3.212  32.122  0.00  0.00    -0.033 A 
ATOM     28  C   UNL     1      -8.939   2.508  31.087  0.00  0.00    +0.005 A 
ATOM     29  C   UNL     1      -7.749   3.040  30.540  0.00  0.00    +0.013 A 
BRANCH  18  19
ATOM     19  C   UNL     1     -10.951   2.544  32.673  0.00  0.00    +0.119 C 
BRANCH  19  20
ATOM     20  N   UNL     1     -11.917   1.989  31.679  0.00  0.00    -0.302 NA
ATOM     21  C   UNL     1     -13.304   2.627  31.809  0.00  0.00    +0.066 C 
ATOM     22  C   UNL     1     -14.296   2.052  30.746  0.00  0.00    -0.064 C 
ATOM     23  N   UNL     1     -14.382   0.532  30.902  0.00  0.00    +0.379 N 
ATOM     24  C   UNL     1     -15.358  -0.005  29.943  0.00  0.00    -0.096 C 
ATOM     25  H   UNL     1     -14.763   0.319  31.928  0.00  0.00    -0.082 HD
ATOM     26  C   UNL     1     -13.007  -0.109  30.778  0.00  0.00    -0.064 C 
ATOM     27  C   UNL     1     -12.021   0.490  31.818  0.00  0.00    +0.066 C 
ENDBRANCH  19  20
ENDBRANCH  18  19
ENDBRANCH  14  15
ENDBRANCH  12  13
TORSDOF 6
ENDMDL
MODEL 4
REMARK VINA RESULT:      -8.5      7.732     12.827
REMARK  Name = C:\Users\Docking\Desktop\test protocol\1iep_ligandH.pdb
REMARK  8 active torsions:
REMARK  status: ('A' for Active; 'I' for Inactive)
REMARK    1  A    between atoms: _5  and  _11
REMARK    2  A    between atoms: _19  and  _21
REMARK    3  A    between atoms: _22  and  _66
REMARK    4  A    between atoms: _27  and  _30
REMARK    5  A    between atoms: _32  and  _33
REMARK    6  A    between atoms: _38  and  _43
REMARK    7  A    between atoms: _43  and  _46
REMARK    8  A    between atoms: _53  and  _55
REMARK                            x       y       z     vdW  Elec       q    Type
REMARK                         _______ _______ _______ _____ _____    ______ ____
ROOT
ATOM     10  C   UNL     1       1.373   6.575  26.922  0.00  0.00    +0.038 A 
ATOM     11  C   UNL     1       0.322   6.024  27.698  0.00  0.00    +0.047 A 
ATOM     12  C   UNL     1      -1.068   6.358  27.429  0.00  0.00    +0.035 A 
ATOM     32  C   UNL     1      -1.351   7.256  26.359  0.00  0.00    +0.024 A 
ATOM     33  C   UNL     1      -0.295   7.827  25.561  0.00  0.00    +0.007 A 
ATOM     34  C   UNL     1       1.078   7.503  25.823  0.00  0.00    -0.029 A 
ATOM     35  C   UNL     1       2.170   8.149  24.940  0.00  0.00    +0.045 C 
ENDROOT
BRANCH  10   9
ATOM      4  C   UNL     1       5.218   6.628  29.794  0.00  0.00    +0.077 A 
ATOM      5  C   UNL     1       4.558   7.456  30.762  0.00  0.00    +0.048 A 
ATOM      6  C   UNL     1       3.232   7.853  30.479  0.00  0.00    +0.116 A 
ATOM      7  N   UNL     1       2.621   7.445  29.313  0.00  0.00    -0.223 NA
ATOM      8  C   UNL     1       3.287   6.648  28.400  0.00  0.00    +0.220 A 
ATOM      9  N   UNL     1       2.690   6.219  27.225  0.00  0.00    -0.283 N 
ATOM     36  H   UNL     1       3.217   5.638  26.574  0.00  0.00    +0.155 HD
ATOM     37  N   UNL     1       4.555   6.256  28.646  0.00  0.00    -0.214 NA
BRANCH   4   3
ATOM      1  C   UNL     1       8.832   5.342  29.025  0.00  0.00    +0.020 A 
ATOM      2  C   UNL     1       7.486   5.826  28.819  0.00  0.00    +0.013 A 
ATOM      3  C   UNL     1       6.619   6.124  29.952  0.00  0.00    +0.019 A 
ATOM     38  C   UNL     1       7.149   5.921  31.292  0.00  0.00    +0.120 A 
ATOM     39  N   UNL     1       8.449   5.452  31.460  0.00  0.00    -0.263 NA
ATOM     40  C   UNL     1       9.291   5.160  30.377  0.00  0.00    +0.111 A 
ENDBRANCH   4   3
ENDBRANCH  10   9
BRANCH  12  13
ATOM     13  N   UNL     1      -2.177   5.836  28.188  0.00  0.00    -0.281 N 
ATOM     14  C   UNL     1      -3.204   6.542  28.792  0.00  0.00    +0.248 C 
ATOM     30  O   UNL     1      -3.208   7.754  28.952  0.00  0.00    -0.270 OA
ATOM     31  H   UNL     1      -2.208   4.821  28.294  0.00  0.00    +0.155 HD
BRANCH  14  15
ATOM     15  C   UNL     1      -4.391   5.793  29.305  0.00  0.00    +0.037 A 
ATOM     16  C   UNL     1      -4.809   4.525  28.702  0.00  0.00    +0.013 A 
ATOM     17  C   UNL     1      -5.968   3.832  29.205  0.00  0.00    +0.005 A 
ATOM     18  C   UNL     1      -6.717   4.406  30.320  0.00  0.00    -0.033 A 
ATOM     28  C   UNL     1      -6.278   5.663  30.903  0.00  0.00    +0.005 A 
ATOM     29  C   UNL     1      -5.143   6.345  30.412  0.00  0.00    +0.013 A 
BRANCH  18  19
ATOM     19  C   UNL     1      -7.979   3.746  30.908  0.00  0.00    +0.119 C 
BRANCH  19  20
ATOM     20  N   UNL     1      -8.029   2.253  30.916  0.00  0.00    -0.302 NA
ATOM     21  C   UNL     1      -9.459   1.725  30.769  0.00  0.00    +0.066 C 
ATOM     22  C   UNL     1      -9.490   0.162  30.757  0.00  0.00    -0.064 C 
ATOM     23  N   UNL     1      -8.846  -0.368  32.039  0.00  0.00    +0.379 N 
ATOM     24  C   UNL     1      -8.926  -1.836  32.057  0.00  0.00    -0.096 C 
ATOM     25  H   UNL     1      -9.442   0.014  32.900  0.00  0.00    -0.082 HD
ATOM     26  C   UNL     1      -7.425   0.154  32.194  0.00  0.00    -0.064 C 
ATOM     27  C   UNL     1      -7.402   1.708  32.175  0.00  0.00    +0.066 C 
ENDBRANCH  19  20
ENDBRANCH  18  19
ENDBRANCH  14  15
ENDBRANCH  12  13
TORSDOF 6
ENDMDL
MODEL 5
REMARK VINA RESULT:      -8.4      2.045     12.963
REMARK  Name = C:\Users\Docking\Desktop\test protocol\1iep_ligandH.pdb
REMARK  8 active torsions:
REMARK  status: ('A' for Active; 'I' for Inactive)
REMARK    1  A    between atoms: _5  and  _11
REMARK    2  A    between atoms: _19  and  _21
REMARK    3  A    between atoms: _22  and  _66
REMARK    4  A    between atoms: _27  and  _30
REMARK    5  A    between atoms: _32  and  _33
REMARK    6  A    between atoms: _38  and  _43
REMARK    7  A    between atoms: _43  and  _46
REMARK    8  A    between atoms: _53  and  _55
REMARK                            x       y       z     vdW  Elec       q    Type
REMARK                         _______ _______ _______ _____ _____    ______ ____
ROOT
ATOM     10  C   UNL     1       5.782   0.266  21.294  0.00  0.00    +0.038 A 
ATOM     11  C   UNL     1       4.911   0.875  22.234  0.00  0.00    +0.047 A 
ATOM     12  C   UNL     1       5.407   1.367  23.510  0.00  0.00    +0.035 A 
ATOM     32  C   UNL     1       6.796   1.224  23.796  0.00  0.00    +0.024 A 
ATOM     33  C   UNL     1       7.695   0.607  22.852  0.00  0.00    +0.007 A 
ATOM     34  C   UNL     1       7.211   0.118  21.593  0.00  0.00    -0.029 A 
ATOM     35  C   UNL     1       8.219  -0.540  20.622  0.00  0.00    +0.045 C 
ENDROOT
BRANCH  10   9
ATOM      4  C   UNL     1       4.205  -3.233  18.412  0.00  0.00    +0.077 A 
ATOM      5  C   UNL     1       4.486  -4.245  19.389  0.00  0.00    +0.048 A 
ATOM      6  C   UNL     1       5.042  -3.824  20.618  0.00  0.00    +0.116 A 
ATOM      7  N   UNL     1       5.294  -2.488  20.842  0.00  0.00    -0.223 NA
ATOM      8  C   UNL     1       5.014  -1.538  19.878  0.00  0.00    +0.220 A 
ATOM      9  N   UNL     1       5.252  -0.188  20.084  0.00  0.00    -0.283 N 
ATOM     36  H   UNL     1       5.038   0.481  19.345  0.00  0.00    +0.155 HD
ATOM     37  N   UNL     1       4.484  -1.914  18.695  0.00  0.00    -0.214 NA
BRANCH   4   3
ATOM      1  C   UNL     1       2.071  -4.790  15.527  0.00  0.00    +0.020 A 
ATOM      2  C   UNL     1       2.611  -4.554  16.846  0.00  0.00    +0.013 A 
ATOM      3  C   UNL     1       3.614  -3.520  17.067  0.00  0.00    +0.019 A 
ATOM     38  C   UNL     1       4.052  -2.735  15.922  0.00  0.00    +0.120 A 
ATOM     39  N   UNL     1       3.516  -2.986  14.663  0.00  0.00    -0.263 NA
ATOM     40  C   UNL     1       2.552  -3.980  14.439  0.00  0.00    +0.111 A 
ENDBRANCH   4   3
ENDBRANCH  10   9
BRANCH  12  13
ATOM     13  N   UNL     1       4.569   1.986  24.507  0.00  0.00    -0.281 N 
ATOM     14  C   UNL     1       4.483   3.330  24.832  0.00  0.00    +0.248 C 
ATOM     30  O   UNL     1       5.274   4.183  24.457  0.00  0.00    -0.270 OA
ATOM     31  H   UNL     1       3.967   1.357  25.039  0.00  0.00    +0.155 HD
BRANCH  14  15
ATOM     15  C   UNL     1       3.365   3.790  25.710  0.00  0.00    +0.037 A 
ATOM     16  C   UNL     1       3.237   3.315  27.090  0.00  0.00    +0.013 A 
ATOM     17  C   UNL     1       2.140   3.762  27.911  0.00  0.00    +0.005 A 
ATOM     18  C   UNL     1       1.161   4.691  27.353  0.00  0.00    -0.033 A 
ATOM     28  C   UNL     1       1.314   5.151  25.982  0.00  0.00    +0.005 A 
ATOM     29  C   UNL     1       2.388   4.715  25.175  0.00  0.00    +0.013 A 
BRANCH  18  19
ATOM     19  C   UNL     1      -0.054   5.204  28.149  0.00  0.00    +0.119 C 
BRANCH  19  20
ATOM     20  N   UNL     1      -0.044   6.639  28.563  0.00  0.00    -0.302 NA
ATOM     21  C   UNL     1       1.005   6.918  29.643  0.00  0.00    +0.066 C 
ATOM     22  C   UNL     1       1.017   8.428  30.048  0.00  0.00    -0.064 C 
ATOM     23  N   UNL     1      -0.377   8.836  30.528  0.00  0.00    +0.379 N 
ATOM     24  C   UNL     1      -0.354  10.240  30.964  0.00  0.00    -0.096 C 
ATOM     25  H   UNL     1      -0.625   8.210  31.416  0.00  0.00    -0.082 HD
ATOM     26  C   UNL     1      -1.426   8.559  29.461  0.00  0.00    -0.064 C 
ATOM     27  C   UNL     1      -1.410   7.062  29.044  0.00  0.00    +0.066 C 
ENDBRANCH  19  20
ENDBRANCH  18  19
ENDBRANCH  14  15
ENDBRANCH  12  13
TORSDOF 6
ENDMDL
