MODEL 1
REMARK VINA RESULT:      -7.9      0.000      0.000
REMARK  Name = C:\Users\Docking\Desktop\test protocol\1iep_ligandH.pdb
REMARK  8 active torsions:
REMARK  status: ('A' for Active; 'I' for Inactive)
REMARK    1  A    between atoms: _5  and  _11
REMARK    2  A    between atoms: _19  and  _21
REMARK    3  A    between atoms: _22  and  _66
REMARK    4  A    between atoms: _27  and  _30
REMARK    5  A    between atoms: _32  and  _33
REMARK    6  A    between atoms: _38  and  _43
REMARK    7  A    between atoms: _43  and  _46
REMARK    8  A    between atoms: _53  and  _55
REMARK                            x       y       z     vdW  Elec       q    Type
REMARK                         _______ _______ _______ _____ _____    ______ ____
ROOT
ATOM     10  C   UNL     1      20.981  27.112   3.558  0.00  0.00    +0.038 A 
ATOM     11  C   UNL     1      19.607  27.075   3.906  0.00  0.00    +0.047 A 
ATOM     12  C   UNL     1      18.822  25.861   3.741  0.00  0.00    +0.035 A 
ATOM     32  C   UNL     1      19.470  24.703   3.222  0.00  0.00    +0.024 A 
ATOM     33  C   UNL     1      20.866  24.723   2.863  0.00  0.00    +0.007 A 
ATOM     34  C   UNL     1      21.645  25.918   3.021  0.00  0.00    -0.029 A 
ATOM     35  C   UNL     1      23.136  25.885   2.613  0.00  0.00    +0.045 C 
ENDROOT
BRANCH  10   9
ATOM      4  C   UNL     1      22.598  31.350   1.988  0.00  0.00    +0.077 A 
ATOM      5  C   UNL     1      22.009  31.162   0.693  0.00  0.00    +0.048 A 
ATOM      6  C   UNL     1      21.305  29.957   0.470  0.00  0.00    +0.116 A 
ATOM      7  N   UNL     1      21.203  29.019   1.474  0.00  0.00    -0.223 NA
ATOM      8  C   UNL     1      21.784  29.231   2.710  0.00  0.00    +0.220 A 
ATOM      9  N   UNL     1      21.687  28.304   3.737  0.00  0.00    -0.283 N 
ATOM     36  H   UNL     1      22.136  28.495   4.632  0.00  0.00    +0.155 HD
ATOM     37  N   UNL     1      22.463  30.372   2.948  0.00  0.00    -0.214 NA
BRANCH   4   3
ATOM      1  C   UNL     1      25.046  33.793   3.815  0.00  0.00    +0.020 A 
ATOM      2  C   UNL     1      24.325  32.587   3.479  0.00  0.00    +0.013 A 
ATOM      3  C   UNL     1      23.370  32.572   2.378  0.00  0.00    +0.019 A 
ATOM     38  C   UNL     1      23.167  33.803   1.630  0.00  0.00    +0.120 A 
ATOM     39  N   UNL     1      23.874  34.950   1.977  0.00  0.00    -0.263 NA
ATOM     40  C   UNL     1      24.795  34.977   3.036  0.00  0.00    +0.111 A 
ENDBRANCH   4   3
ENDBRANCH  10   9
BRANCH  12  13
ATOM     13  N   UNL     1      17.421  25.766   4.070  0.00  0.00    -0.281 N 
ATOM     14  C   UNL     1      16.379  25.369   3.248  0.00  0.00    +0.248 C 
ATOM     30  O   UNL     1      16.466  25.239   2.036  0.00  0.00    -0.270 OA
ATOM     31  H   UNL     1      17.167  26.022   5.024  0.00  0.00    +0.155 HD
BRANCH  14  15
ATOM     15  C   UNL     1      15.044  25.090   3.858  0.00  0.00    +0.037 A 
ATOM     16  C   UNL     1      14.783  23.839   4.576  0.00  0.00    +0.013 A 
ATOM     17  C   UNL     1      13.481  23.588   5.141  0.00  0.00    +0.005 A 
ATOM     18  C   UNL     1      12.429  24.591   4.991  0.00  0.00    -0.033 A 
ATOM     28  C   UNL     1      12.717  25.825   4.279  0.00  0.00    +0.005 A 
ATOM     29  C   UNL     1      13.992  26.075   3.723  0.00  0.00    +0.013 A 
BRANCH  18  19
ATOM     19  C   UNL     1      11.004  24.398   5.543  0.00  0.00    +0.119 C 
BRANCH  19  20
ATOM     20  N   UNL     1      10.780  24.719   6.985  0.00  0.00    -0.302 NA
ATOM     21  C   UNL     1      11.695  25.846   7.472  0.00  0.00    +0.066 C 
ATOM     22  C   UNL     1      11.432  26.183   8.975  0.00  0.00    -0.064 C 
ATOM     23  N   UNL     1      11.628  24.923   9.820  0.00  0.00    +0.379 N 
ATOM     24  C   UNL     1      11.438  25.250  11.241  0.00  0.00    -0.096 C 
ATOM     25  H   UNL     1      12.683  24.589   9.688  0.00  0.00    -0.082 HD
ATOM     26  C   UNL     1      10.724  23.797   9.341  0.00  0.00    -0.064 C 
ATOM     27  C   UNL     1      10.973  23.489   7.838  0.00  0.00    +0.066 C 
ENDBRANCH  19  20
ENDBRANCH  18  19
ENDBRANCH  14  15
ENDBRANCH  12  13
TORSDOF 6
ENDMDL
MODEL 2
REMARK VINA RESULT:      -7.8      4.113     12.233
REMARK  Name = C:\Users\Docking\Desktop\test protocol\1iep_ligandH.pdb
REMARK  8 active torsions:
REMARK  status: ('A' for Active; 'I' for Inactive)
REMARK    1  A    between atoms: _5  and  _11
REMARK    2  A    between atoms: _19  and  _21
REMARK    3  A    between atoms: _22  and  _66
REMARK    4  A    between atoms: _27  and  _30
REMARK    5  A    between atoms: _32  and  _33
REMARK    6  A    between atoms: _38  and  _43
REMARK    7  A    between atoms: _43  and  _46
REMARK    8  A    between atoms: _53  and  _55
REMARK                            x       y       z     vdW  Elec       q    Type
REMARK                         _______ _______ _______ _____ _____    ______ ____
ROOT
ATOM     10  C   UNL     1      12.575  25.826   3.595  0.00  0.00    +0.038 A 
ATOM     11  C   UNL     1      13.933  26.209   3.733  0.00  0.00    +0.047 A 
ATOM     12  C   UNL     1      15.008  25.363   3.239  0.00  0.00    +0.035 A 
ATOM     32  C   UNL     1      14.663  24.133   2.607  0.00  0.00    +0.024 A 
ATOM     33  C   UNL     1      13.288  23.727   2.460  0.00  0.00    +0.007 A 
ATOM     34  C   UNL     1      12.223  24.556   2.947  0.00  0.00    -0.029 A 
ATOM     35  C   UNL     1      10.767  24.067   2.768  0.00  0.00    +0.045 C 
ENDROOT
BRANCH  10   9
ATOM      4  C   UNL     1       9.901  27.586   7.171  0.00  0.00    +0.077 A 
ATOM      5  C   UNL     1      10.512  26.718   8.135  0.00  0.00    +0.048 A 
ATOM      6  C   UNL     1      11.506  25.828   7.669  0.00  0.00    +0.116 A 
ATOM      7  N   UNL     1      11.854  25.816   6.336  0.00  0.00    -0.223 NA
ATOM      8  C   UNL     1      11.243  26.666   5.432  0.00  0.00    +0.220 A 
ATOM      9  N   UNL     1      11.583  26.677   4.088  0.00  0.00    -0.283 N 
ATOM     36  H   UNL     1      11.104  27.314   3.452  0.00  0.00    +0.155 HD
ATOM     37  N   UNL     1      10.290  27.524   5.852  0.00  0.00    -0.214 NA
BRANCH   4   3
ATOM      1  C   UNL     1       7.740  30.241   9.064  0.00  0.00    +0.020 A 
ATOM      2  C   UNL     1       8.788  29.286   8.787  0.00  0.00    +0.013 A 
ATOM      3  C   UNL     1       8.837  28.584   7.511  0.00  0.00    +0.019 A 
ATOM     38  C   UNL     1       7.804  28.874   6.528  0.00  0.00    +0.120 A 
ATOM     39  N   UNL     1       6.806  29.798   6.824  0.00  0.00    -0.263 NA
ATOM     40  C   UNL     1       6.747  30.478   8.050  0.00  0.00    +0.111 A 
ENDBRANCH   4   3
ENDBRANCH  10   9
BRANCH  12  13
ATOM     13  N   UNL     1      16.406  25.697   3.358  0.00  0.00    -0.281 N 
ATOM     14  C   UNL     1      17.336  25.166   4.236  0.00  0.00    +0.248 C 
ATOM     30  O   UNL     1      17.057  24.472   5.203  0.00  0.00    -0.270 OA
ATOM     31  H   UNL     1      16.751  26.411   2.716  0.00  0.00    +0.155 HD
BRANCH  14  15
ATOM     15  C   UNL     1      18.785  25.460   4.018  0.00  0.00    +0.037 A 
ATOM     16  C   UNL     1      19.532  26.325   4.935  0.00  0.00    +0.013 A 
ATOM     17  C   UNL     1      20.925  26.606   4.692  0.00  0.00    +0.005 A 
ATOM     18  C   UNL     1      21.580  26.020   3.525  0.00  0.00    -0.033 A 
ATOM     28  C   UNL     1      20.817  25.161   2.634  0.00  0.00    +0.005 A 
ATOM     29  C   UNL     1      19.452  24.884   2.869  0.00  0.00    +0.013 A 
BRANCH  18  19
ATOM     19  C   UNL     1      23.057  26.283   3.176  0.00  0.00    +0.119 C 
BRANCH  19  20
ATOM     20  N   UNL     1      23.942  25.092   3.007  0.00  0.00    -0.302 NA
ATOM     21  C   UNL     1      23.921  24.181   4.237  0.00  0.00    +0.066 C 
ATOM     22  C   UNL     1      24.835  22.928   4.034  0.00  0.00    -0.064 C 
ATOM     23  N   UNL     1      26.261  23.386   3.723  0.00  0.00    +0.379 N 
ATOM     24  C   UNL     1      27.135  22.211   3.589  0.00  0.00    -0.096 C 
ATOM     25  H   UNL     1      26.623  23.979   4.595  0.00  0.00    -0.082 HD
ATOM     26  C   UNL     1      26.290  24.294   2.502  0.00  0.00    -0.064 C 
ATOM     27  C   UNL     1      25.356  25.520   2.703  0.00  0.00    +0.066 C 
ENDBRANCH  19  20
ENDBRANCH  18  19
ENDBRANCH  14  15
ENDBRANCH  12  13
TORSDOF 6
ENDMDL
MODEL 3
REMARK VINA RESULT:      -7.8      0.905      1.530
REMARK  Name = C:\Users\Docking\Desktop\test protocol\1iep_ligandH.pdb
REMARK  8 active torsions:
REMARK  status: ('A' for Active; 'I' for Inactive)
REMARK    1  A    between atoms: _5  and  _11
REMARK    2  A    between atoms: _19  and  _21
REMARK    3  A    between atoms: _22  and  _66
REMARK    4  A    between atoms: _27  and  _30
REMARK    5  A    between atoms: _32  and  _33
REMARK    6  A    between atoms: _38  and  _43
REMARK    7  A    between atoms: _43  and  _46
REMARK    8  A    between atoms: _53  and  _55
REMARK                            x       y       z     vdW  Elec       q    Type
REMARK                         _______ _______ _______ _____ _____    ______ ____
ROOT
ATOM     10  C   UNL     1      20.985  27.053   3.513  0.00  0.00    +0.038 A 
ATOM     11  C   UNL     1      19.636  26.952   3.940  0.00  0.00    +0.047 A 
ATOM     12  C   UNL     1      18.882  25.720   3.765  0.00  0.00    +0.035 A 
ATOM     32  C   UNL     1      19.534  24.610   3.153  0.00  0.00    +0.024 A 
ATOM     33  C   UNL     1      20.904  24.696   2.712  0.00  0.00    +0.007 A 
ATOM     34  C   UNL     1      21.652  25.909   2.880  0.00  0.00    -0.029 A 
ATOM     35  C   UNL     1      23.116  25.946   2.383  0.00  0.00    +0.045 C 
ENDROOT
BRANCH  10   9
ATOM      4  C   UNL     1      22.551  31.321   1.973  0.00  0.00    +0.077 A 
ATOM      5  C   UNL     1      21.997  31.118   0.665  0.00  0.00    +0.048 A 
ATOM      6  C   UNL     1      21.323  29.899   0.427  0.00  0.00    +0.116 A 
ATOM      7  N   UNL     1      21.216  28.960   1.430  0.00  0.00    -0.223 NA
ATOM      8  C   UNL     1      21.763  29.186   2.680  0.00  0.00    +0.220 A 
ATOM      9  N   UNL     1      21.661  28.259   3.706  0.00  0.00    -0.283 N 
ATOM     36  H   UNL     1      22.085  28.461   4.611  0.00  0.00    +0.155 HD
ATOM     37  N   UNL     1      22.413  30.342   2.932  0.00  0.00    -0.214 NA
BRANCH   4   3
ATOM      1  C   UNL     1      25.007  33.786   3.759  0.00  0.00    +0.020 A 
ATOM      2  C   UNL     1      24.324  32.563   3.404  0.00  0.00    +0.013 A 
ATOM      3  C   UNL     1      23.289  32.558   2.379  0.00  0.00    +0.019 A 
ATOM     38  C   UNL     1      22.966  33.818   1.725  0.00  0.00    +0.120 A 
ATOM     39  N   UNL     1      23.639  34.980   2.088  0.00  0.00    -0.263 NA
ATOM     40  C   UNL     1      24.636  34.997   3.075  0.00  0.00    +0.111 A 
ENDBRANCH   4   3
ENDBRANCH  10   9
BRANCH  12  13
ATOM     13  N   UNL     1      17.507  25.561   4.171  0.00  0.00    -0.281 N 
ATOM     14  C   UNL     1      16.402  25.337   3.366  0.00  0.00    +0.248 C 
ATOM     30  O   UNL     1      16.398  25.452   2.150  0.00  0.00    -0.270 OA
ATOM     31  H   UNL     1      17.327  25.621   5.173  0.00  0.00    +0.155 HD
BRANCH  14  15
ATOM     15  C   UNL     1      15.111  24.941   4.007  0.00  0.00    +0.037 A 
ATOM     16  C   UNL     1      13.954  25.840   4.004  0.00  0.00    +0.013 A 
ATOM     17  C   UNL     1      12.726  25.440   4.644  0.00  0.00    +0.005 A 
ATOM     18  C   UNL     1      12.648  24.133   5.292  0.00  0.00    -0.033 A 
ATOM     28  C   UNL     1      13.810  23.259   5.276  0.00  0.00    +0.005 A 
ATOM     29  C   UNL     1      15.015  23.648   4.650  0.00  0.00    +0.013 A 
BRANCH  18  19
ATOM     19  C   UNL     1      11.385  23.633   6.017  0.00  0.00    +0.119 C 
BRANCH  19  20
ATOM     20  N   UNL     1      11.494  23.380   7.485  0.00  0.00    -0.302 NA
ATOM     21  C   UNL     1      11.461  21.885   7.815  0.00  0.00    +0.066 C 
ATOM     22  C   UNL     1      11.599  21.639   9.353  0.00  0.00    -0.064 C 
ATOM     23  N   UNL     1      10.482  22.381  10.088  0.00  0.00    +0.379 N 
ATOM     24  C   UNL     1      10.574  22.104  11.529  0.00  0.00    -0.096 C 
ATOM     25  H   UNL     1       9.510  21.972   9.726  0.00  0.00    -0.082 HD
ATOM     26  C   UNL     1      10.506  23.867   9.763  0.00  0.00    -0.064 C 
ATOM     27  C   UNL     1      10.398  24.101   8.230  0.00  0.00    +0.066 C 
ENDBRANCH  19  20
ENDBRANCH  18  19
ENDBRANCH  14  15
ENDBRANCH  12  13
TORSDOF 6
ENDMDL
MODEL 4
REMARK VINA RESULT:      -7.7      6.240     13.465
REMARK  Name = C:\Users\Docking\Desktop\test protocol\1iep_ligandH.pdb
REMARK  8 active torsions:
REMARK  status: ('A' for Active; 'I' for Inactive)
REMARK    1  A    between atoms: _5  and  _11
REMARK    2  A    between atoms: _19  and  _21
REMARK    3  A    between atoms: _22  and  _66
REMARK    4  A    between atoms: _27  and  _30
REMARK    5  A    between atoms: _32  and  _33
REMARK    6  A    between atoms: _38  and  _43
REMARK    7  A    between atoms: _43  and  _46
REMARK    8  A    between atoms: _53  and  _55
REMARK                            x       y       z     vdW  Elec       q    Type
REMARK                         _______ _______ _______ _____ _____    ______ ____
ROOT
ATOM     10  C   UNL     1      21.954  27.315   2.789  0.00  0.00    +0.038 A 
ATOM     11  C   UNL     1      22.675  28.530   2.670  0.00  0.00    +0.047 A 
ATOM     12  C   UNL     1      22.083  29.698   2.037  0.00  0.00    +0.035 A 
ATOM     32  C   UNL     1      20.752  29.594   1.537  0.00  0.00    +0.024 A 
ATOM     33  C   UNL     1      20.005  28.365   1.648  0.00  0.00    +0.007 A 
ATOM     34  C   UNL     1      20.585  27.209   2.270  0.00  0.00    -0.029 A 
ATOM     35  C   UNL     1      19.740  25.917   2.356  0.00  0.00    +0.045 C 
ENDROOT
BRANCH  10   9
ATOM      4  C   UNL     1      25.079  23.672   2.807  0.00  0.00    +0.077 A 
ATOM      5  C   UNL     1      25.498  23.947   1.463  0.00  0.00    +0.048 A 
ATOM      6  C   UNL     1      24.879  25.030   0.799  0.00  0.00    +0.116 A 
ATOM      7  N   UNL     1      23.915  25.776   1.442  0.00  0.00    -0.223 NA
ATOM      8  C   UNL     1      23.533  25.483   2.738  0.00  0.00    +0.220 A 
ATOM      9  N   UNL     1      22.571  26.225   3.406  0.00  0.00    -0.283 N 
ATOM     36  H   UNL     1      22.312  25.972   4.360  0.00  0.00    +0.155 HD
ATOM     37  N   UNL     1      24.108  24.453   3.393  0.00  0.00    -0.214 NA
BRANCH   4   3
ATOM      1  C   UNL     1      27.560  21.317   4.704  0.00  0.00    +0.020 A 
ATOM      2  C   UNL     1      27.069  22.406   3.891  0.00  0.00    +0.013 A 
ATOM      3  C   UNL     1      25.642  22.563   3.641  0.00  0.00    +0.019 A 
ATOM     38  C   UNL     1      24.731  21.595   4.233  0.00  0.00    +0.120 A 
ATOM     39  N   UNL     1      25.233  20.556   5.011  0.00  0.00    -0.263 NA
ATOM     40  C   UNL     1      26.605  20.393   5.257  0.00  0.00    +0.111 A 
ENDBRANCH   4   3
ENDBRANCH  10   9
BRANCH  12  13
ATOM     13  N   UNL     1      22.769  30.957   1.881  0.00  0.00    -0.281 N 
ATOM     14  C   UNL     1      22.679  32.081   2.685  0.00  0.00    +0.248 C 
ATOM     30  O   UNL     1      21.828  32.250   3.545  0.00  0.00    -0.270 OA
ATOM     31  H   UNL     1      23.398  31.027   1.080  0.00  0.00    +0.155 HD
BRANCH  14  15
ATOM     15  C   UNL     1      23.671  33.184   2.497  0.00  0.00    +0.037 A 
ATOM     16  C   UNL     1      24.183  33.948   3.637  0.00  0.00    +0.013 A 
ATOM     17  C   UNL     1      25.125  35.018   3.427  0.00  0.00    +0.005 A 
ATOM     18  C   UNL     1      25.563  35.329   2.068  0.00  0.00    -0.033 A 
ATOM     28  C   UNL     1      25.043  34.552   0.955  0.00  0.00    +0.005 A 
ATOM     29  C   UNL     1      24.118  33.503   1.158  0.00  0.00    +0.013 A 
BRANCH  18  19
ATOM     19  C   UNL     1      26.550  36.468   1.748  0.00  0.00    +0.119 C 
BRANCH  19  20
ATOM     20  N   UNL     1      26.273  37.804   2.354  0.00  0.00    -0.302 NA
ATOM     21  C   UNL     1      26.127  38.898   1.293  0.00  0.00    +0.066 C 
ATOM     22  C   UNL     1      25.815  40.285   1.944  0.00  0.00    -0.064 C 
ATOM     23  N   UNL     1      26.922  40.639   2.938  0.00  0.00    +0.379 N 
ATOM     24  C   UNL     1      26.662  41.968   3.509  0.00  0.00    -0.096 C 
ATOM     25  H   UNL     1      27.880  40.696   2.370  0.00  0.00    -0.082 HD
ATOM     26  C   UNL     1      27.076  39.555   3.995  0.00  0.00    -0.064 C 
ATOM     27  C   UNL     1      27.356  38.175   3.336  0.00  0.00    +0.066 C 
ENDBRANCH  19  20
ENDBRANCH  18  19
ENDBRANCH  14  15
ENDBRANCH  12  13
TORSDOF 6
ENDMDL
MODEL 5
REMARK VINA RESULT:      -7.7     10.652     15.265
REMARK  Name = C:\Users\Docking\Desktop\test protocol\1iep_ligandH.pdb
REMARK  8 active torsions:
REMARK  status: ('A' for Active; 'I' for Inactive)
REMARK    1  A    between atoms: _5  and  _11
REMARK    2  A    between atoms: _19  and  _21
REMARK    3  A    between atoms: _22  and  _66
REMARK    4  A    between atoms: _27  and  _30
REMARK    5  A    between atoms: _32  and  _33
REMARK    6  A    between atoms: _38  and  _43
REMARK    7  A    between atoms: _43  and  _46
REMARK    8  A    between atoms: _53  and  _55
REMARK                            x       y       z     vdW  Elec       q    Type
REMARK                         _______ _______ _______ _____ _____    ______ ____
ROOT
ATOM     10  C   UNL     1      11.339  23.265  10.870  0.00  0.00    +0.038 A 
ATOM     11  C   UNL     1      10.372  24.293  10.724  0.00  0.00    +0.047 A 
ATOM     12  C   UNL     1      10.359  25.153   9.551  0.00  0.00    +0.035 A 
ATOM     32  C   UNL     1      11.344  24.936   8.543  0.00  0.00    +0.024 A 
ATOM     33  C   UNL     1      12.334  23.897   8.676  0.00  0.00    +0.007 A 
ATOM     34  C   UNL     1      12.354  23.047   9.832  0.00  0.00    -0.029 A 
ATOM     35  C   UNL     1      13.443  21.953   9.924  0.00  0.00    +0.045 C 
ENDROOT
BRANCH  10   9
ATOM      4  C   UNL     1      10.089  19.266  13.211  0.00  0.00    +0.077 A 
ATOM      5  C   UNL     1       9.425  18.728  12.059  0.00  0.00    +0.048 A 
ATOM      6  C   UNL     1       9.421  19.516  10.886  0.00  0.00    +0.116 A 
ATOM      7  N   UNL     1      10.039  20.747  10.877  0.00  0.00    -0.223 NA
ATOM      8  C   UNL     1      10.670  21.237  12.006  0.00  0.00    +0.220 A 
ATOM      9  N   UNL     1      11.305  22.469  12.017  0.00  0.00    -0.283 N 
ATOM     36  H   UNL     1      11.752  22.798  12.872  0.00  0.00    +0.155 HD
ATOM     37  N   UNL     1      10.686  20.505  13.139  0.00  0.00    -0.214 NA
BRANCH   4   3
ATOM      1  C   UNL     1       9.167  17.604  16.630  0.00  0.00    +0.020 A 
ATOM      2  C   UNL     1       9.023  18.298  15.371  0.00  0.00    +0.013 A 
ATOM      3  C   UNL     1      10.182  18.552  14.524  0.00  0.00    +0.019 A 
ATOM     38  C   UNL     1      11.482  18.086  14.983  0.00  0.00    +0.120 A 
ATOM     39  N   UNL     1      11.590  17.421  16.200  0.00  0.00    -0.263 NA
ATOM     40  C   UNL     1      10.482  17.173  17.025  0.00  0.00    +0.111 A 
ENDBRANCH   4   3
ENDBRANCH  10   9
BRANCH  12  13
ATOM     13  N   UNL     1       9.407  26.217   9.351  0.00  0.00    -0.281 N 
ATOM     14  C   UNL     1       9.665  27.546   9.055  0.00  0.00    +0.248 C 
ATOM     30  O   UNL     1      10.767  28.069   9.127  0.00  0.00    -0.270 OA
ATOM     31  H   UNL     1       8.424  25.961   9.439  0.00  0.00    +0.155 HD
BRANCH  14  15
ATOM     15  C   UNL     1       8.532  28.424   8.631  0.00  0.00    +0.037 A 
ATOM     16  C   UNL     1       8.398  29.791   9.142  0.00  0.00    +0.013 A 
ATOM     17  C   UNL     1       7.287  30.611   8.730  0.00  0.00    +0.005 A 
ATOM     18  C   UNL     1       6.301  30.066   7.800  0.00  0.00    -0.033 A 
ATOM     28  C   UNL     1       6.461  28.709   7.305  0.00  0.00    +0.005 A 
ATOM     29  C   UNL     1       7.548  27.902   7.707  0.00  0.00    +0.013 A 
BRANCH  18  19
ATOM     19  C   UNL     1       5.071  30.862   7.323  0.00  0.00    +0.119 C 
BRANCH  19  20
ATOM     20  N   UNL     1       3.894  30.079   6.842  0.00  0.00    -0.302 NA
ATOM     21  C   UNL     1       3.380  30.586   5.492  0.00  0.00    +0.066 C 
ATOM     22  C   UNL     1       2.162  29.741   4.993  0.00  0.00    -0.064 C 
ATOM     23  N   UNL     1       1.052  29.782   6.045  0.00  0.00    +0.379 N 
ATOM     24  C   UNL     1      -0.116  29.036   5.555  0.00  0.00    -0.096 C 
ATOM     25  H   UNL     1       0.746  30.846   6.173  0.00  0.00    -0.082 HD
ATOM     26  C   UNL     1       1.556  29.282   7.392  0.00  0.00    -0.064 C 
ATOM     27  C   UNL     1       2.784  30.109   7.864  0.00  0.00    +0.066 C 
ENDBRANCH  19  20
ENDBRANCH  18  19
ENDBRANCH  14  15
ENDBRANCH  12  13
TORSDOF 6
ENDMDL
