MODEL 1
REMARK VINA RESULT:      -8.5      0.000      0.000
REMARK  Name = C:\Users\Docking\Desktop\test protocol\1iep_ligandH.pdb
REMARK  8 active torsions:
REMARK  status: ('A' for Active; 'I' for Inactive)
REMARK    1  A    between atoms: _5  and  _11
REMARK    2  A    between atoms: _19  and  _21
REMARK    3  A    between atoms: _22  and  _66
REMARK    4  A    between atoms: _27  and  _30
REMARK    5  A    between atoms: _32  and  _33
REMARK    6  A    between atoms: _38  and  _43
REMARK    7  A    between atoms: _43  and  _46
REMARK    8  A    between atoms: _53  and  _55
REMARK                            x       y       z     vdW  Elec       q    Type
REMARK                         _______ _______ _______ _____ _____    ______ ____
ROOT
ATOM     10  C   UNL     1      -1.767   7.885  29.532  0.00  0.00    +0.038 A 
ATOM     11  C   UNL     1      -2.740   6.868  29.709  0.00  0.00    +0.047 A 
ATOM     12  C   UNL     1      -4.161   7.158  29.599  0.00  0.00    +0.035 A 
ATOM     32  C   UNL     1      -4.556   8.495  29.304  0.00  0.00    +0.024 A 
ATOM     33  C   UNL     1      -3.581   9.542  29.122  0.00  0.00    +0.007 A 
ATOM     34  C   UNL     1      -2.178   9.262  29.233  0.00  0.00    -0.029 A 
ATOM     35  C   UNL     1      -1.177  10.424  29.034  0.00  0.00    +0.045 C 
ENDROOT
BRANCH  10   9
ATOM      4  C   UNL     1       2.369   6.277  27.703  0.00  0.00    +0.077 A 
ATOM      5  C   UNL     1       1.782   6.061  26.412  0.00  0.00    +0.048 A 
ATOM      6  C   UNL     1       0.412   6.369  26.262  0.00  0.00    +0.116 A 
ATOM      7  N   UNL     1      -0.309   6.857  27.331  0.00  0.00    -0.223 NA
ATOM      8  C   UNL     1       0.287   7.052  28.563  0.00  0.00    +0.220 A 
ATOM      9  N   UNL     1      -0.416   7.550  29.649  0.00  0.00    -0.283 N 
ATOM     36  H   UNL     1       0.058   7.673  30.544  0.00  0.00    +0.155 HD
ATOM     37  N   UNL     1       1.594   6.764  28.732  0.00  0.00    -0.214 NA
BRANCH   4   3
ATOM      1  C   UNL     1       6.035   4.924  27.533  0.00  0.00    +0.020 A 
ATOM      2  C   UNL     1       4.653   5.157  27.184  0.00  0.00    +0.013 A 
ATOM      3  C   UNL     1       3.807   6.002  28.018  0.00  0.00    +0.019 A 
ATOM     38  C   UNL     1       4.395   6.602  29.206  0.00  0.00    +0.120 A 
ATOM     39  N   UNL     1       5.729   6.358  29.517  0.00  0.00    -0.263 NA
ATOM     40  C   UNL     1       6.553   5.545  28.724  0.00  0.00    +0.111 A 
ENDBRANCH   4   3
ENDBRANCH  10   9
BRANCH  12  13
ATOM     13  N   UNL     1      -5.194   6.168  29.776  0.00  0.00    -0.281 N 
ATOM     14  C   UNL     1      -5.129   4.811  29.505  0.00  0.00    +0.248 C 
ATOM     30  O   UNL     1      -4.237   4.276  28.864  0.00  0.00    -0.270 OA
ATOM     31  H   UNL     1      -6.081   6.509  30.147  0.00  0.00    +0.155 HD
BRANCH  14  15
ATOM     15  C   UNL     1      -6.221   3.922  30.006  0.00  0.00    +0.037 A 
ATOM     16  C   UNL     1      -6.416   2.576  29.460  0.00  0.00    +0.013 A 
ATOM     17  C   UNL     1      -7.487   1.745  29.949  0.00  0.00    +0.005 A 
ATOM     18  C   UNL     1      -8.373   2.258  30.992  0.00  0.00    -0.033 A 
ATOM     28  C   UNL     1      -8.154   3.595  31.519  0.00  0.00    +0.005 A 
ATOM     29  C   UNL     1      -7.105   4.413  31.042  0.00  0.00    +0.013 A 
BRANCH  18  19
ATOM     19  C   UNL     1      -9.555   1.449  31.558  0.00  0.00    +0.119 C 
BRANCH  19  20
ATOM     20  N   UNL     1     -10.821   1.444  30.766  0.00  0.00    -0.302 NA
ATOM     21  C   UNL     1     -12.006   1.981  31.575  0.00  0.00    +0.066 C 
ATOM     22  C   UNL     1     -13.318   1.989  30.725  0.00  0.00    -0.064 C 
ATOM     23  N   UNL     1     -13.604   0.575  30.219  0.00  0.00    +0.379 N 
ATOM     24  C   UNL     1     -14.868   0.568  29.467  0.00  0.00    -0.096 C 
ATOM     25  H   UNL     1     -13.736  -0.083  31.109  0.00  0.00    -0.082 HD
ATOM     26  C   UNL     1     -12.430   0.033  29.416  0.00  0.00    -0.064 C 
ATOM     27  C   UNL     1     -11.125   0.056  30.260  0.00  0.00    +0.066 C 
ENDBRANCH  19  20
ENDBRANCH  18  19
ENDBRANCH  14  15
ENDBRANCH  12  13
TORSDOF 6
ENDMDL
MODEL 2
REMARK VINA RESULT:      -8.3      4.112      6.490
REMARK  Name = C:\Users\Docking\Desktop\test protocol\1iep_ligandH.pdb
REMARK  8 active torsions:
REMARK  status: ('A' for Active; 'I' for Inactive)
REMARK    1  A    between atoms: _5  and  _11
REMARK    2  A    between atoms: _19  and  _21
REMARK    3  A    between atoms: _22  and  _66
REMARK    4  A    between atoms: _27  and  _30
REMARK    5  A    between atoms: _32  and  _33
REMARK    6  A    between atoms: _38  and  _43
REMARK    7  A    between atoms: _43  and  _46
REMARK    8  A    between atoms: _53  and  _55
REMARK                            x       y       z     vdW  Elec       q    Type
REMARK                         _______ _______ _______ _____ _____    ______ ____
ROOT
ATOM     10  C   UNL     1       2.939   6.454  26.330  0.00  0.00    +0.038 A 
ATOM     11  C   UNL     1       1.629   6.649  26.837  0.00  0.00    +0.047 A 
ATOM     12  C   UNL     1       0.992   5.648  27.679  0.00  0.00    +0.035 A 
ATOM     32  C   UNL     1       1.719   4.462  27.987  0.00  0.00    +0.024 A 
ATOM     33  C   UNL     1       3.051   4.247  27.478  0.00  0.00    +0.007 A 
ATOM     34  C   UNL     1       3.684   5.229  26.645  0.00  0.00    -0.029 A 
ATOM     35  C   UNL     1       5.111   4.943  26.123  0.00  0.00    +0.045 C 
ENDROOT
BRANCH  10   9
ATOM      4  C   UNL     1       2.610   9.911  23.016  0.00  0.00    +0.077 A 
ATOM      5  C   UNL     1       1.200   9.701  22.852  0.00  0.00    +0.048 A 
ATOM      6  C   UNL     1       0.600   8.689  23.634  0.00  0.00    +0.116 A 
ATOM      7  N   UNL     1       1.361   7.949  24.512  0.00  0.00    -0.223 NA
ATOM      8  C   UNL     1       2.719   8.175  24.644  0.00  0.00    +0.220 A 
ATOM      9  N   UNL     1       3.503   7.448  25.526  0.00  0.00    -0.283 N 
ATOM     36  H   UNL     1       4.502   7.640  25.589  0.00  0.00    +0.155 HD
ATOM     37  N   UNL     1       3.317   9.135  23.908  0.00  0.00    -0.214 NA
BRANCH   4   3
ATOM      1  C   UNL     1       5.364  12.487  21.977  0.00  0.00    +0.020 A 
ATOM      2  C   UNL     1       4.652  11.491  22.743  0.00  0.00    +0.013 A 
ATOM      3  C   UNL     1       3.388  10.945  22.263  0.00  0.00    +0.019 A 
ATOM     38  C   UNL     1       2.869  11.432  20.994  0.00  0.00    +0.120 A 
ATOM     39  N   UNL     1       3.577  12.393  20.279  0.00  0.00    -0.263 NA
ATOM     40  C   UNL     1       4.792  12.927  20.732  0.00  0.00    +0.111 A 
ENDBRANCH   4   3
ENDBRANCH  10   9
BRANCH  12  13
ATOM     13  N   UNL     1      -0.339   5.788  28.217  0.00  0.00    -0.281 N 
ATOM     14  C   UNL     1      -1.536   5.842  27.522  0.00  0.00    +0.248 C 
ATOM     30  O   UNL     1      -1.628   5.995  26.313  0.00  0.00    -0.270 OA
ATOM     31  H   UNL     1      -0.406   5.854  29.232  0.00  0.00    +0.155 HD
BRANCH  14  15
ATOM     15  C   UNL     1      -2.818   5.725  28.283  0.00  0.00    +0.037 A 
ATOM     16  C   UNL     1      -3.443   6.895  28.903  0.00  0.00    +0.013 A 
ATOM     17  C   UNL     1      -4.670   6.751  29.646  0.00  0.00    +0.005 A 
ATOM     18  C   UNL     1      -5.281   5.430  29.770  0.00  0.00    -0.033 A 
ATOM     28  C   UNL     1      -4.642   4.287  29.139  0.00  0.00    +0.005 A 
ATOM     29  C   UNL     1      -3.439   4.424  28.412  0.00  0.00    +0.013 A 
BRANCH  18  19
ATOM     19  C   UNL     1      -6.579   5.179  30.561  0.00  0.00    +0.119 C 
BRANCH  19  20
ATOM     20  N   UNL     1      -6.740   3.842  31.204  0.00  0.00    -0.302 NA
ATOM     21  C   UNL     1      -7.915   3.057  30.613  0.00  0.00    +0.066 C 
ATOM     22  C   UNL     1      -8.055   1.651  31.283  0.00  0.00    -0.064 C 
ATOM     23  N   UNL     1      -8.223   1.823  32.793  0.00  0.00    +0.379 N 
ATOM     24  C   UNL     1      -8.413   0.506  33.419  0.00  0.00    -0.096 C 
ATOM     25  H   UNL     1      -9.152   2.416  32.964  0.00  0.00    -0.082 HD
ATOM     26  C   UNL     1      -7.061   2.604  33.389  0.00  0.00    -0.064 C 
ATOM     27  C   UNL     1      -6.912   3.988  32.696  0.00  0.00    +0.066 C 
ENDBRANCH  19  20
ENDBRANCH  18  19
ENDBRANCH  14  15
ENDBRANCH  12  13
TORSDOF 6
ENDMDL
MODEL 3
REMARK VINA RESULT:      -8.3      2.213      3.687
REMARK  Name = C:\Users\Docking\Desktop\test protocol\1iep_ligandH.pdb
REMARK  8 active torsions:
REMARK  status: ('A' for Active; 'I' for Inactive)
REMARK    1  A    between atoms: _5  and  _11
REMARK    2  A    between atoms: _19  and  _21
REMARK    3  A    between atoms: _22  and  _66
REMARK    4  A    between atoms: _27  and  _30
REMARK    5  A    between atoms: _32  and  _33
REMARK    6  A    between atoms: _38  and  _43
REMARK    7  A    between atoms: _43  and  _46
REMARK    8  A    between atoms: _53  and  _55
REMARK                            x       y       z     vdW  Elec       q    Type
REMARK                         _______ _______ _______ _____ _____    ______ ____
ROOT
ATOM     10  C   UNL     1       1.059   6.482  27.629  0.00  0.00    +0.038 A 
ATOM     11  C   UNL     1      -0.019   6.037  28.436  0.00  0.00    +0.047 A 
ATOM     12  C   UNL     1      -1.397   6.338  28.084  0.00  0.00    +0.035 A 
ATOM     32  C   UNL     1      -1.642   7.092  26.900  0.00  0.00    +0.024 A 
ATOM     33  C   UNL     1      -0.559   7.554  26.068  0.00  0.00    +0.007 A 
ATOM     34  C   UNL     1       0.804   7.262  26.412  0.00  0.00    -0.029 A 
ATOM     35  C   UNL     1       1.926   7.787  25.487  0.00  0.00    +0.045 C 
ENDROOT
BRANCH  10   9
ATOM      4  C   UNL     1       4.838   6.938  30.554  0.00  0.00    +0.077 A 
ATOM      5  C   UNL     1       4.166   7.911  31.366  0.00  0.00    +0.048 A 
ATOM      6  C   UNL     1       2.852   8.273  30.993  0.00  0.00    +0.116 A 
ATOM      7  N   UNL     1       2.263   7.697  29.888  0.00  0.00    -0.223 NA
ATOM      8  C   UNL     1       2.939   6.762  29.125  0.00  0.00    +0.220 A 
ATOM      9  N   UNL     1       2.363   6.164  28.015  0.00  0.00    -0.283 N 
ATOM     36  H   UNL     1       2.898   5.485  27.474  0.00  0.00    +0.155 HD
ATOM     37  N   UNL     1       4.196   6.401  29.460  0.00  0.00    -0.214 NA
BRANCH   4   3
ATOM      1  C   UNL     1       8.336   5.233  30.161  0.00  0.00    +0.020 A 
ATOM      2  C   UNL     1       6.997   5.679  29.853  0.00  0.00    +0.013 A 
ATOM      3  C   UNL     1       6.228   6.451  30.821  0.00  0.00    +0.019 A 
ATOM     38  C   UNL     1       6.849   6.758  32.101  0.00  0.00    +0.120 A 
ATOM     39  N   UNL     1       8.139   6.314  32.370  0.00  0.00    -0.263 NA
ATOM     40  C   UNL     1       8.888   5.569  31.447  0.00  0.00    +0.111 A 
ENDBRANCH   4   3
ENDBRANCH  10   9
BRANCH  12  13
ATOM     13  N   UNL     1      -2.532   5.919  28.869  0.00  0.00    -0.281 N 
ATOM     14  C   UNL     1      -3.462   4.938  28.566  0.00  0.00    +0.248 C 
ATOM     30  O   UNL     1      -3.582   4.414  27.469  0.00  0.00    -0.270 OA
ATOM     31  H   UNL     1      -2.666   6.406  29.755  0.00  0.00    +0.155 HD
BRANCH  14  15
ATOM     15  C   UNL     1      -4.404   4.482  29.634  0.00  0.00    +0.037 A 
ATOM     16  C   UNL     1      -5.719   5.105  29.802  0.00  0.00    +0.013 A 
ATOM     17  C   UNL     1      -6.602   4.658  30.850  0.00  0.00    +0.005 A 
ATOM     18  C   UNL     1      -6.172   3.580  31.738  0.00  0.00    -0.033 A 
ATOM     28  C   UNL     1      -4.863   2.977  31.545  0.00  0.00    +0.005 A 
ATOM     29  C   UNL     1      -3.995   3.413  30.519  0.00  0.00    +0.013 A 
BRANCH  18  19
ATOM     19  C   UNL     1      -7.039   3.054  32.897  0.00  0.00    +0.119 C 
BRANCH  19  20
ATOM     20  N   UNL     1      -8.151   2.120  32.548  0.00  0.00    -0.302 NA
ATOM     21  C   UNL     1      -7.828   1.277  31.312  0.00  0.00    +0.066 C 
ATOM     22  C   UNL     1      -8.992   0.290  30.975  0.00  0.00    -0.064 C 
ATOM     23  N   UNL     1     -10.284   1.081  30.767  0.00  0.00    +0.379 N 
ATOM     24  C   UNL     1     -11.369   0.161  30.394  0.00  0.00    -0.096 C 
ATOM     25  H   UNL     1     -10.121   1.777  29.912  0.00  0.00    -0.082 HD
ATOM     26  C   UNL     1     -10.612   1.924  31.992  0.00  0.00    -0.064 C 
ATOM     27  C   UNL     1      -9.437   2.881  32.335  0.00  0.00    +0.066 C 
ENDBRANCH  19  20
ENDBRANCH  18  19
ENDBRANCH  14  15
ENDBRANCH  12  13
TORSDOF 6
ENDMDL
MODEL 4
REMARK VINA RESULT:      -8.3      7.427     13.608
REMARK  Name = C:\Users\Docking\Desktop\test protocol\1iep_ligandH.pdb
REMARK  8 active torsions:
REMARK  status: ('A' for Active; 'I' for Inactive)
REMARK    1  A    between atoms: _5  and  _11
REMARK    2  A    between atoms: _19  and  _21
REMARK    3  A    between atoms: _22  and  _66
REMARK    4  A    between atoms: _27  and  _30
REMARK    5  A    between atoms: _32  and  _33
REMARK    6  A    between atoms: _38  and  _43
REMARK    7  A    between atoms: _43  and  _46
REMARK    8  A    between atoms: _53  and  _55
REMARK                            x       y       z     vdW  Elec       q    Type
REMARK                         _______ _______ _______ _____ _____    ______ ____
ROOT
ATOM     10  C   UNL     1       2.999   4.520  27.107  0.00  0.00    +0.038 A 
ATOM     11  C   UNL     1       3.129   3.681  25.971  0.00  0.00    +0.047 A 
ATOM     12  C   UNL     1       4.416   3.486  25.322  0.00  0.00    +0.035 A 
ATOM     32  C   UNL     1       5.552   4.159  25.859  0.00  0.00    +0.024 A 
ATOM     33  C   UNL     1       5.438   5.016  27.013  0.00  0.00    +0.007 A 
ATOM     34  C   UNL     1       4.170   5.214  27.656  0.00  0.00    -0.029 A 
ATOM     35  C   UNL     1       4.106   6.149  28.886  0.00  0.00    +0.045 C 
ENDROOT
BRANCH  10   9
ATOM      4  C   UNL     1      -1.277   6.674  27.447  0.00  0.00    +0.077 A 
ATOM      5  C   UNL     1      -0.963   7.594  26.392  0.00  0.00    +0.048 A 
ATOM      6  C   UNL     1       0.311   7.484  25.793  0.00  0.00    +0.116 A 
ATOM      7  N   UNL     1       1.198   6.522  26.224  0.00  0.00    -0.223 NA
ATOM      8  C   UNL     1       0.865   5.651  27.246  0.00  0.00    +0.220 A 
ATOM      9  N   UNL     1       1.739   4.671  27.690  0.00  0.00    -0.283 N 
ATOM     36  H   UNL     1       1.458   4.053  28.452  0.00  0.00    +0.155 HD
ATOM     37  N   UNL     1      -0.345   5.737  27.835  0.00  0.00    -0.214 NA
BRANCH   4   3
ATOM      1  C   UNL     1      -4.366   7.754  29.590  0.00  0.00    +0.020 A 
ATOM      2  C   UNL     1      -3.097   7.818  28.902  0.00  0.00    +0.013 A 
ATOM      3  C   UNL     1      -2.584   6.662  28.177  0.00  0.00    +0.019 A 
ATOM     38  C   UNL     1      -3.386   5.448  28.166  0.00  0.00    +0.120 A 
ATOM     39  N   UNL     1      -4.604   5.416  28.839  0.00  0.00    -0.263 NA
ATOM     40  C   UNL     1      -5.107   6.521  29.541  0.00  0.00    +0.111 A 
ENDBRANCH   4   3
ENDBRANCH  10   9
BRANCH  12  13
ATOM     13  N   UNL     1       4.607   2.654  24.161  0.00  0.00    -0.281 N 
ATOM     14  C   UNL     1       5.692   2.628  23.300  0.00  0.00    +0.248 C 
ATOM     30  O   UNL     1       6.575   3.472  23.276  0.00  0.00    -0.270 OA
ATOM     31  H   UNL     1       3.850   2.004  23.947  0.00  0.00    +0.155 HD
BRANCH  14  15
ATOM     15  C   UNL     1       5.806   1.510  22.314  0.00  0.00    +0.037 A 
ATOM     16  C   UNL     1       5.030   0.277  22.471  0.00  0.00    +0.013 A 
ATOM     17  C   UNL     1       5.171  -0.792  21.515  0.00  0.00    +0.005 A 
ATOM     18  C   UNL     1       6.092  -0.632  20.392  0.00  0.00    -0.033 A 
ATOM     28  C   UNL     1       6.846   0.604  20.258  0.00  0.00    +0.005 A 
ATOM     29  C   UNL     1       6.711   1.654  21.194  0.00  0.00    +0.013 A 
BRANCH  18  19
ATOM     19  C   UNL     1       6.322  -1.729  19.336  0.00  0.00    +0.119 C 
BRANCH  19  20
ATOM     20  N   UNL     1       5.182  -2.649  19.046  0.00  0.00    -0.302 NA
ATOM     21  C   UNL     1       5.519  -4.105  19.383  0.00  0.00    +0.066 C 
ATOM     22  C   UNL     1       4.307  -5.050  19.095  0.00  0.00    -0.064 C 
ATOM     23  N   UNL     1       3.895  -4.915  17.628  0.00  0.00    +0.379 N 
ATOM     24  C   UNL     1       2.794  -5.846  17.340  0.00  0.00    -0.096 C 
ATOM     25  H   UNL     1       4.767  -5.219  17.003  0.00  0.00    -0.082 HD
ATOM     26  C   UNL     1       3.562  -3.470  17.284  0.00  0.00    -0.064 C 
ATOM     27  C   UNL     1       4.762  -2.535  17.602  0.00  0.00    +0.066 C 
ENDBRANCH  19  20
ENDBRANCH  18  19
ENDBRANCH  14  15
ENDBRANCH  12  13
TORSDOF 6
ENDMDL
MODEL 5
REMARK VINA RESULT:      -8.2     14.681     19.632
REMARK  Name = C:\Users\Docking\Desktop\test protocol\1iep_ligandH.pdb
REMARK  8 active torsions:
REMARK  status: ('A' for Active; 'I' for Inactive)
REMARK    1  A    between atoms: _5  and  _11
REMARK    2  A    between atoms: _19  and  _21
REMARK    3  A    between atoms: _22  and  _66
REMARK    4  A    between atoms: _27  and  _30
REMARK    5  A    between atoms: _32  and  _33
REMARK    6  A    between atoms: _38  and  _43
REMARK    7  A    between atoms: _43  and  _46
REMARK    8  A    between atoms: _53  and  _55
REMARK                            x       y       z     vdW  Elec       q    Type
REMARK                         _______ _______ _______ _____ _____    ______ ____
ROOT
ATOM     10  C   UNL     1       1.943  -1.646  11.931  0.00  0.00    +0.038 A 
ATOM     11  C   UNL     1       2.701  -1.604  13.129  0.00  0.00    +0.047 A 
ATOM     12  C   UNL     1       2.562  -2.636  14.144  0.00  0.00    +0.035 A 
ATOM     32  C   UNL     1       1.643  -3.699  13.905  0.00  0.00    +0.024 A 
ATOM     33  C   UNL     1       0.864  -3.758  12.694  0.00  0.00    +0.007 A 
ATOM     34  C   UNL     1       0.995  -2.741  11.690  0.00  0.00    -0.029 A 
ATOM     35  C   UNL     1       0.129  -2.851  10.413  0.00  0.00    +0.045 C 
ENDROOT
BRANCH  10   9
ATOM      4  C   UNL     1       0.857   2.656  10.100  0.00  0.00    +0.077 A 
ATOM      5  C   UNL     1      -0.160   2.884  11.086  0.00  0.00    +0.048 A 
ATOM      6  C   UNL     1      -0.377   1.867  12.042  0.00  0.00    +0.116 A 
ATOM      7  N   UNL     1       0.373   0.711  12.006  0.00  0.00    -0.223 NA
ATOM      8  C   UNL     1       1.345   0.522  11.040  0.00  0.00    +0.220 A 
ATOM      9  N   UNL     1       2.116  -0.629  10.990  0.00  0.00    -0.283 N 
ATOM     36  H   UNL     1       2.818  -0.734  10.257  0.00  0.00    +0.155 HD
ATOM     37  N   UNL     1       1.570   1.478  10.115  0.00  0.00    -0.214 NA
BRANCH   4   3
ATOM      1  C   UNL     1       0.633   5.057   7.020  0.00  0.00    +0.020 A 
ATOM      2  C   UNL     1       0.244   4.107   8.037  0.00  0.00    +0.013 A 
ATOM      3  C   UNL     1       1.207   3.638   9.026  0.00  0.00    +0.019 A 
ATOM     38  C   UNL     1       2.566   4.154   8.957  0.00  0.00    +0.120 A 
ATOM     39  N   UNL     1       2.911   5.067   7.966  0.00  0.00    -0.263 NA
ATOM     40  C   UNL     1       1.994   5.524   7.008  0.00  0.00    +0.111 A 
ENDBRANCH   4   3
ENDBRANCH  10   9
BRANCH  12  13
ATOM     13  N   UNL     1       3.298  -2.641  15.384  0.00  0.00    -0.281 N 
ATOM     14  C   UNL     1       4.671  -2.582  15.558  0.00  0.00    +0.248 C 
ATOM     30  O   UNL     1       5.489  -2.732  14.663  0.00  0.00    -0.270 OA
ATOM     31  H   UNL     1       2.740  -2.695  16.236  0.00  0.00    +0.155 HD
BRANCH  14  15
ATOM     15  C   UNL     1       5.215  -2.336  16.929  0.00  0.00    +0.037 A 
ATOM     16  C   UNL     1       6.451  -1.575  17.130  0.00  0.00    +0.013 A 
ATOM     17  C   UNL     1       6.963  -1.367  18.462  0.00  0.00    +0.005 A 
ATOM     18  C   UNL     1       6.236  -1.918  19.603  0.00  0.00    -0.033 A 
ATOM     28  C   UNL     1       5.009  -2.664  19.374  0.00  0.00    +0.005 A 
ATOM     29  C   UNL     1       4.506  -2.872  18.071  0.00  0.00    +0.013 A 
BRANCH  18  19
ATOM     19  C   UNL     1       6.720  -1.763  21.057  0.00  0.00    +0.119 C 
BRANCH  19  20
ATOM     20  N   UNL     1       6.671  -0.393  21.650  0.00  0.00    -0.302 NA
ATOM     21  C   UNL     1       6.719  -0.428  23.181  0.00  0.00    +0.066 C 
ATOM     22  C   UNL     1       6.691   1.014  23.784  0.00  0.00    -0.064 C 
ATOM     23  N   UNL     1       5.437   1.742  23.298  0.00  0.00    +0.379 N 
ATOM     24  C   UNL     1       5.377   3.078  23.910  0.00  0.00    -0.096 C 
ATOM     25  H   UNL     1       4.552   1.167  23.655  0.00  0.00    -0.082 HD
ATOM     26  C   UNL     1       5.380   1.780  21.777  0.00  0.00    -0.064 C 
ATOM     27  C   UNL     1       5.439   0.343  21.187  0.00  0.00    +0.066 C 
ENDBRANCH  19  20
ENDBRANCH  18  19
ENDBRANCH  14  15
ENDBRANCH  12  13
TORSDOF 6
ENDMDL
