MODEL 1
REMARK VINA RESULT:      -7.4      0.000      0.000
REMARK  8 active torsions:
REMARK  status: ('A' for Active; 'I' for Inactive)
REMARK    1  A    between atoms: O_1  and  C_7 
REMARK    2  A    between atoms: O_2  and  C_15 
REMARK    3  A    between atoms: O_3  and  C_17 
REMARK    4  A    between atoms: N_4  and  C_5 
REMARK    5  A    between atoms: N_4  and  C_6 
REMARK    6  A    between atoms: C_6  and  C_7 
REMARK    7  A    between atoms: C_7  and  C_11 
REMARK    8  A    between atoms: C_14  and  C_17 
ROOT
HETATM    1  C   UNK     0      14.026  59.181  12.611  0.00  0.00    -0.027 A 
HETATM    2  C   UNK     0      13.810  60.492  12.998  0.00  0.00     0.022 A 
HETATM    3  C   UNK     0      13.096  58.485  11.858  0.00  0.00     0.012 A 
HETATM    4  C   UNK     0      12.627  61.127  12.620  0.00  0.00    -0.001 A 
HETATM    5  C   UNK     0      11.679  60.441  11.861  0.00  0.00     0.074 A 
HETATM    6  C   UNK     0      11.913  59.120  11.481  0.00  0.00     0.038 A 
ENDROOT
BRANCH   1   7
HETATM    7  C   UNK     0      15.309  58.492  13.020  0.00  0.00     0.179 C 
BRANCH   7   8
HETATM    8  O   UNK     0      16.353  59.465  13.039  0.00  0.00    -0.389 OA
HETATM    9  H   UNK     0      15.948  60.325  13.241  0.00  0.00     0.210 HD
ENDBRANCH   7   8
BRANCH   7  10
HETATM   10  C   UNK     0      15.666  57.350  12.060  0.00  0.00     0.306 C 
BRANCH  10  11
HETATM   11  N   UNK     0      15.601  56.066  12.738  0.00  0.00     0.094 N 
HETATM   12  H   UNK     0      15.560  56.210  13.746  0.00  0.00     0.317 HD
BRANCH  11  13
HETATM   13  C   UNK     0      16.765  55.241  12.394  0.00  0.00     0.147 C 
HETATM   14  C   UNK     0      18.017  55.891  12.992  0.00  0.00     0.048 C 
HETATM   15  C   UNK     0      16.563  53.842  12.985  0.00  0.00     0.048 C 
HETATM   16  C   UNK     0      16.893  55.155  10.869  0.00  0.00     0.048 C 
ENDBRANCH  11  13
ENDBRANCH  10  11
ENDBRANCH   7  10
ENDBRANCH   1   7
BRANCH   4  17
HETATM   17  C   UNK     0      12.392  62.542  13.037  0.00  0.00     0.205 C 
BRANCH  17  18
HETATM   18  O   UNK     0      12.393  63.334  11.857  0.00  0.00    -0.396 OA
HETATM   19  H   UNK     0      13.285  63.274  11.474  0.00  0.00     0.209 HD
ENDBRANCH  17  18
ENDBRANCH   4  17
BRANCH   5  20
HETATM   20  O   UNK     0      10.518  61.046  11.485  0.00  0.00    -0.360 OA
HETATM   21  H   UNK     0       9.866  61.000  12.203  0.00  0.00     0.217 HD
ENDBRANCH   5  20
TORSDOF 8
ENDMDL
MODEL 2
REMARK VINA RESULT:      -6.1      7.570     10.922
REMARK  8 active torsions:
REMARK  status: ('A' for Active; 'I' for Inactive)
REMARK    1  A    between atoms: O_1  and  C_7 
REMARK    2  A    between atoms: O_2  and  C_15 
REMARK    3  A    between atoms: O_3  and  C_17 
REMARK    4  A    between atoms: N_4  and  C_5 
REMARK    5  A    between atoms: N_4  and  C_6 
REMARK    6  A    between atoms: C_6  and  C_7 
REMARK    7  A    between atoms: C_7  and  C_11 
REMARK    8  A    between atoms: C_14  and  C_17 
ROOT
HETATM    1  C   UNK     0      15.309  49.900  17.242  0.00  0.00    -0.027 A 
HETATM    2  C   UNK     0      15.677  49.000  18.227  0.00  0.00     0.022 A 
HETATM    3  C   UNK     0      14.005  50.344  17.117  0.00  0.00     0.012 A 
HETATM    4  C   UNK     0      14.710  48.530  19.114  0.00  0.00    -0.001 A 
HETATM    5  C   UNK     0      13.389  48.967  19.003  0.00  0.00     0.074 A 
HETATM    6  C   UNK     0      13.037  49.874  18.005  0.00  0.00     0.038 A 
ENDROOT
BRANCH   1   7
HETATM    7  C   UNK     0      16.359  50.411  16.279  0.00  0.00     0.179 C 
BRANCH   7   8
HETATM    8  O   UNK     0      17.554  50.665  17.015  0.00  0.00    -0.389 OA
HETATM    9  H   UNK     0      17.396  50.394  17.934  0.00  0.00     0.210 HD
ENDBRANCH   7   8
BRANCH   7  10
HETATM   10  C   UNK     0      15.893  51.685  15.564  0.00  0.00     0.306 C 
BRANCH  10  11
HETATM   11  N   UNK     0      17.022  52.548  15.259  0.00  0.00     0.094 N 
HETATM   12  H   UNK     0      17.352  52.999  16.112  0.00  0.00     0.317 HD
BRANCH  11  13
HETATM   13  C   UNK     0      16.644  53.562  14.268  0.00  0.00     0.147 C 
HETATM   14  C   UNK     0      16.862  52.982  12.867  0.00  0.00     0.048 C 
HETATM   15  C   UNK     0      15.165  53.913  14.469  0.00  0.00     0.048 C 
HETATM   16  C   UNK     0      17.512  54.811  14.463  0.00  0.00     0.048 C 
ENDBRANCH  11  13
ENDBRANCH  10  11
ENDBRANCH   7  10
ENDBRANCH   1   7
BRANCH   4  17
HETATM   17  C   UNK     0      15.104  47.557  20.177  0.00  0.00     0.205 C 
BRANCH  17  18
HETATM   18  O   UNK     0      14.297  46.400  20.009  0.00  0.00    -0.396 OA
HETATM   19  H   UNK     0      14.218  45.978  20.882  0.00  0.00     0.209 HD
ENDBRANCH  17  18
ENDBRANCH   4  17
BRANCH   5  20
HETATM   20  O   UNK     0      12.432  48.517  19.862  0.00  0.00    -0.360 OA
HETATM   21  H   UNK     0      12.670  48.737  20.776  0.00  0.00     0.217 HD
ENDBRANCH   5  20
TORSDOF 8
ENDMDL
MODEL 3
REMARK VINA RESULT:      -5.9     13.916     15.267
REMARK  8 active torsions:
REMARK  status: ('A' for Active; 'I' for Inactive)
REMARK    1  A    between atoms: O_1  and  C_7 
REMARK    2  A    between atoms: O_2  and  C_15 
REMARK    3  A    between atoms: O_3  and  C_17 
REMARK    4  A    between atoms: N_4  and  C_5 
REMARK    5  A    between atoms: N_4  and  C_6 
REMARK    6  A    between atoms: C_6  and  C_7 
REMARK    7  A    between atoms: C_7  and  C_11 
REMARK    8  A    between atoms: C_14  and  C_17 
ROOT
HETATM    1  C   UNK     0      20.201  47.755  19.454  0.00  0.00    -0.027 A 
HETATM    2  C   UNK     0      21.059  48.826  19.268  0.00  0.00     0.022 A 
HETATM    3  C   UNK     0      20.571  46.464  19.122  0.00  0.00     0.012 A 
HETATM    4  C   UNK     0      22.326  48.597  18.733  0.00  0.00    -0.001 A 
HETATM    5  C   UNK     0      22.716  47.301  18.392  0.00  0.00     0.074 A 
HETATM    6  C   UNK     0      21.839  46.235  18.587  0.00  0.00     0.038 A 
ENDROOT
BRANCH   1   7
HETATM    7  C   UNK     0      18.827  48.003  20.036  0.00  0.00     0.179 C 
BRANCH   7   8
HETATM    8  O   UNK     0      18.978  48.331  21.416  0.00  0.00    -0.389 OA
HETATM    9  H   UNK     0      18.270  47.879  21.904  0.00  0.00     0.210 HD
ENDBRANCH   7   8
BRANCH   7  10
HETATM   10  C   UNK     0      17.919  46.777  19.877  0.00  0.00     0.306 C 
BRANCH  10  11
HETATM   11  N   UNK     0      16.941  46.716  20.950  0.00  0.00     0.094 N 
HETATM   12  H   UNK     0      17.053  45.846  21.469  0.00  0.00     0.317 HD
BRANCH  11  13
HETATM   13  C   UNK     0      15.579  46.809  20.412  0.00  0.00     0.147 C 
HETATM   14  C   UNK     0      14.876  45.464  20.627  0.00  0.00     0.048 C 
HETATM   15  C   UNK     0      14.833  47.919  21.162  0.00  0.00     0.048 C 
HETATM   16  C   UNK     0      15.645  47.136  18.916  0.00  0.00     0.048 C 
ENDBRANCH  11  13
ENDBRANCH  10  11
ENDBRANCH   7  10
ENDBRANCH   1   7
BRANCH   4  17
HETATM   17  C   UNK     0      23.253  49.750  18.530  0.00  0.00     0.205 C 
BRANCH  17  18
HETATM   18  O   UNK     0      23.659  49.729  17.168  0.00  0.00    -0.396 OA
HETATM   19  H   UNK     0      22.857  49.842  16.629  0.00  0.00     0.209 HD
ENDBRANCH  17  18
ENDBRANCH   4  17
BRANCH   5  20
HETATM   20  O   UNK     0      23.950  47.060  17.867  0.00  0.00    -0.360 OA
HETATM   21  H   UNK     0      24.638  47.245  18.527  0.00  0.00     0.217 HD
ENDBRANCH   5  20
TORSDOF 8
ENDMDL
