MODEL 1
REMARK VINA RESULT:      -7.3      0.000      0.000
REMARK  8 active torsions:
REMARK  status: ('A' for Active; 'I' for Inactive)
REMARK    1  A    between atoms: O_1  and  C_7 
REMARK    2  A    between atoms: O_2  and  C_15 
REMARK    3  A    between atoms: O_3  and  C_17 
REMARK    4  A    between atoms: N_4  and  C_5 
REMARK    5  A    between atoms: N_4  and  C_6 
REMARK    6  A    between atoms: C_6  and  C_7 
REMARK    7  A    between atoms: C_7  and  C_11 
REMARK    8  A    between atoms: C_14  and  C_17 
ROOT
HETATM    1  C   UNK     0      20.544  28.865  16.933  0.00  0.00    -0.027 A 
HETATM    2  C   UNK     0      19.722  29.563  16.065  0.00  0.00     0.022 A 
HETATM    3  C   UNK     0      21.840  29.274  17.191  0.00  0.00     0.012 A 
HETATM    4  C   UNK     0      20.213  30.707  15.436  0.00  0.00    -0.001 A 
HETATM    5  C   UNK     0      21.518  31.135  15.685  0.00  0.00     0.074 A 
HETATM    6  C   UNK     0      22.331  30.418  16.562  0.00  0.00     0.038 A 
ENDROOT
BRANCH   1   7
HETATM    7  C   UNK     0      20.012  27.623  17.616  0.00  0.00     0.179 C 
BRANCH   7   8
HETATM    8  O   UNK     0      20.029  26.553  16.673  0.00  0.00    -0.389 OA
HETATM    9  H   UNK     0      19.916  25.724  17.168  0.00  0.00     0.210 HD
ENDBRANCH   7   8
BRANCH   7  10
HETATM   10  C   UNK     0      18.590  27.840  18.148  0.00  0.00     0.306 C 
BRANCH  10  11
HETATM   11  N   UNK     0      18.619  28.475  19.455  0.00  0.00     0.094 N 
HETATM   12  H   UNK     0      19.432  28.151  19.978  0.00  0.00     0.317 HD
BRANCH  11  13
HETATM   13  C   UNK     0      17.390  28.178  20.200  0.00  0.00     0.147 C 
HETATM   14  C   UNK     0      16.292  27.798  19.201  0.00  0.00     0.048 C 
HETATM   15  C   UNK     0      17.666  27.008  21.150  0.00  0.00     0.048 C 
HETATM   16  C   UNK     0      16.970  29.418  20.999  0.00  0.00     0.048 C 
ENDBRANCH  11  13
ENDBRANCH  10  11
ENDBRANCH   7  10
ENDBRANCH   1   7
BRANCH   4  17
HETATM   17  C   UNK     0      19.328  31.462  14.499  0.00  0.00     0.205 C 
BRANCH  17  18
HETATM   18  O   UNK     0      19.118  32.749  15.063  0.00  0.00    -0.396 OA
HETATM   19  H   UNK     0      19.316  32.680  16.013  0.00  0.00     0.209 HD
ENDBRANCH  17  18
ENDBRANCH   4  17
BRANCH   5  20
HETATM   20  O   UNK     0      22.013  32.250  15.078  0.00  0.00    -0.360 OA
HETATM   21  H   UNK     0      22.167  32.079  14.135  0.00  0.00     0.217 HD
ENDBRANCH   5  20
TORSDOF 8
ENDMDL
MODEL 2
REMARK VINA RESULT:      -7.2      2.392      5.644
REMARK  8 active torsions:
REMARK  status: ('A' for Active; 'I' for Inactive)
REMARK    1  A    between atoms: O_1  and  C_7 
REMARK    2  A    between atoms: O_2  and  C_15 
REMARK    3  A    between atoms: O_3  and  C_17 
REMARK    4  A    between atoms: N_4  and  C_5 
REMARK    5  A    between atoms: N_4  and  C_6 
REMARK    6  A    between atoms: C_6  and  C_7 
REMARK    7  A    between atoms: C_7  and  C_11 
REMARK    8  A    between atoms: C_14  and  C_17 
ROOT
HETATM    1  C   UNK     0      19.667  28.064  17.779  0.00  0.00    -0.027 A 
HETATM    2  C   UNK     0      18.321  28.120  18.094  0.00  0.00     0.022 A 
HETATM    3  C   UNK     0      20.627  27.809  18.742  0.00  0.00     0.012 A 
HETATM    4  C   UNK     0      17.922  27.915  19.415  0.00  0.00    -0.001 A 
HETATM    5  C   UNK     0      18.876  27.657  20.399  0.00  0.00     0.074 A 
HETATM    6  C   UNK     0      20.229  27.604  20.063  0.00  0.00     0.038 A 
ENDROOT
BRANCH   1   7
HETATM    7  C   UNK     0      20.100  28.286  16.346  0.00  0.00     0.179 C 
BRANCH   7   8
HETATM    8  O   UNK     0      20.915  27.184  15.950  0.00  0.00    -0.389 OA
HETATM    9  H   UNK     0      21.191  26.718  16.756  0.00  0.00     0.210 HD
ENDBRANCH   7   8
BRANCH   7  10
HETATM   10  C   UNK     0      20.872  29.601  16.188  0.00  0.00     0.306 C 
BRANCH  10  11
HETATM   11  N   UNK     0      20.065  30.730  16.621  0.00  0.00     0.094 N 
HETATM   12  H   UNK     0      19.094  30.438  16.728  0.00  0.00     0.317 HD
BRANCH  11  13
HETATM   13  C   UNK     0      20.156  31.830  15.655  0.00  0.00     0.147 C 
HETATM   14  C   UNK     0      19.364  31.446  14.400  0.00  0.00     0.048 C 
HETATM   15  C   UNK     0      19.557  33.089  16.291  0.00  0.00     0.048 C 
HETATM   16  C   UNK     0      21.627  32.070  15.296  0.00  0.00     0.048 C 
ENDBRANCH  11  13
ENDBRANCH  10  11
ENDBRANCH   7  10
ENDBRANCH   1   7
BRANCH   4  17
HETATM   17  C   UNK     0      16.470  27.976  19.758  0.00  0.00     0.205 C 
BRANCH  17  18
HETATM   18  O   UNK     0      15.812  26.985  18.980  0.00  0.00    -0.396 OA
HETATM   19  H   UNK     0      16.135  27.078  18.067  0.00  0.00     0.209 HD
ENDBRANCH  17  18
ENDBRANCH   4  17
BRANCH   5  20
HETATM   20  O   UNK     0      18.504  27.456  21.694  0.00  0.00    -0.360 OA
HETATM   21  H   UNK     0      19.149  27.861  22.296  0.00  0.00     0.217 HD
ENDBRANCH   5  20
TORSDOF 8
ENDMDL
MODEL 3
REMARK VINA RESULT:      -7.1      1.167      2.617
REMARK  8 active torsions:
REMARK  status: ('A' for Active; 'I' for Inactive)
REMARK    1  A    between atoms: O_1  and  C_7 
REMARK    2  A    between atoms: O_2  and  C_15 
REMARK    3  A    between atoms: O_3  and  C_17 
REMARK    4  A    between atoms: N_4  and  C_5 
REMARK    5  A    between atoms: N_4  and  C_6 
REMARK    6  A    between atoms: C_6  and  C_7 
REMARK    7  A    between atoms: C_7  and  C_11 
REMARK    8  A    between atoms: C_14  and  C_17 
ROOT
HETATM    1  C   UNK     0      20.442  28.630  17.162  0.00  0.00    -0.027 A 
HETATM    2  C   UNK     0      21.795  28.889  17.295  0.00  0.00     0.022 A 
HETATM    3  C   UNK     0      19.618  29.448  16.409  0.00  0.00     0.012 A 
HETATM    4  C   UNK     0      22.341  30.002  16.654  0.00  0.00    -0.001 A 
HETATM    5  C   UNK     0      21.524  30.837  15.891  0.00  0.00     0.074 A 
HETATM    6  C   UNK     0      20.163  30.560  15.769  0.00  0.00     0.038 A 
ENDROOT
BRANCH   1   7
HETATM    7  C   UNK     0      19.850  27.423  17.857  0.00  0.00     0.179 C 
BRANCH   7   8
HETATM    8  O   UNK     0      19.859  26.331  16.939  0.00  0.00    -0.389 OA
HETATM    9  H   UNK     0      20.643  25.791  17.134  0.00  0.00     0.210 HD
ENDBRANCH   7   8
BRANCH   7  10
HETATM   10  C   UNK     0      18.421  27.697  18.341  0.00  0.00     0.306 C 
BRANCH  10  11
HETATM   11  N   UNK     0      18.432  28.456  19.581  0.00  0.00     0.094 N 
HETATM   12  H   UNK     0      19.261  28.217  20.124  0.00  0.00     0.317 HD
BRANCH  11  13
HETATM   13  C   UNK     0      17.222  28.183  20.364  0.00  0.00     0.147 C 
HETATM   14  C   UNK     0      16.904  29.414  21.218  0.00  0.00     0.048 C 
HETATM   15  C   UNK     0      16.068  27.900  19.397  0.00  0.00     0.048 C 
HETATM   16  C   UNK     0      17.465  26.965  21.264  0.00  0.00     0.048 C 
ENDBRANCH  11  13
ENDBRANCH  10  11
ENDBRANCH   7  10
ENDBRANCH   1   7
BRANCH   4  17
HETATM   17  C   UNK     0      23.800  30.284  16.797  0.00  0.00     0.205 C 
BRANCH  17  18
HETATM   18  O   UNK     0      24.476  29.035  16.759  0.00  0.00    -0.396 OA
HETATM   19  H   UNK     0      23.962  28.416  17.305  0.00  0.00     0.209 HD
ENDBRANCH  17  18
ENDBRANCH   4  17
BRANCH   5  20
HETATM   20  O   UNK     0      22.041  31.929  15.260  0.00  0.00    -0.360 OA
HETATM   21  H   UNK     0      22.474  31.664  14.432  0.00  0.00     0.217 HD
ENDBRANCH   5  20
TORSDOF 8
ENDMDL
