MODEL 1
REMARK VINA RESULT:      -6.9      0.000      0.000
REMARK  8 active torsions:
REMARK  status: ('A' for Active; 'I' for Inactive)
REMARK    1  A    between atoms: O_1  and  C_7 
REMARK    2  A    between atoms: O_2  and  C_15 
REMARK    3  A    between atoms: O_3  and  C_17 
REMARK    4  A    between atoms: N_4  and  C_5 
REMARK    5  A    between atoms: N_4  and  C_6 
REMARK    6  A    between atoms: C_6  and  C_7 
REMARK    7  A    between atoms: C_7  and  C_11 
REMARK    8  A    between atoms: C_14  and  C_17 
ROOT
HETATM    1  C   UNK     0      10.177  15.140   0.848  0.00  0.00    -0.027 A 
HETATM    2  C   UNK     0      11.252  15.320   1.701  0.00  0.00     0.022 A 
HETATM    3  C   UNK     0      10.108  15.784  -0.375  0.00  0.00     0.012 A 
HETATM    4  C   UNK     0      12.289  16.170   1.319  0.00  0.00    -0.001 A 
HETATM    5  C   UNK     0      12.236  16.827   0.090  0.00  0.00     0.074 A 
HETATM    6  C   UNK     0      11.145  16.634  -0.757  0.00  0.00     0.038 A 
ENDROOT
BRANCH   1   7
HETATM    7  C   UNK     0       9.051  14.218   1.261  0.00  0.00     0.179 C 
BRANCH   7   8
HETATM    8  O   UNK     0       7.863  14.995   1.398  0.00  0.00    -0.389 OA
HETATM    9  H   UNK     0       7.132  14.384   1.586  0.00  0.00     0.210 HD
ENDBRANCH   7   8
BRANCH   7  10
HETATM   10  C   UNK     0       9.369  13.497   2.578  0.00  0.00     0.306 C 
BRANCH  10  11
HETATM   11  N   UNK     0       8.215  13.503   3.462  0.00  0.00     0.094 N 
HETATM   12  H   UNK     0       7.463  14.048   3.043  0.00  0.00     0.317 HD
BRANCH  11  13
HETATM   13  C   UNK     0       8.571  14.060   4.771  0.00  0.00     0.147 C 
HETATM   14  C   UNK     0       7.888  13.225   5.859  0.00  0.00     0.048 C 
HETATM   15  C   UNK     0      10.094  13.993   4.933  0.00  0.00     0.048 C 
HETATM   16  C   UNK     0       8.097  15.516   4.849  0.00  0.00     0.048 C 
ENDBRANCH  11  13
ENDBRANCH  10  11
ENDBRANCH   7  10
ENDBRANCH   1   7
BRANCH   4  17
HETATM   17  C   UNK     0      13.449  16.366   2.240  0.00  0.00     0.205 C 
BRANCH  17  18
HETATM   18  O   UNK     0      14.624  16.032   1.513  0.00  0.00    -0.396 OA
HETATM   19  H   UNK     0      14.387  16.038   0.570  0.00  0.00     0.209 HD
ENDBRANCH  17  18
ENDBRANCH   4  17
BRANCH   5  20
HETATM   20  O   UNK     0      13.241  17.662  -0.298  0.00  0.00    -0.360 OA
HETATM   21  H   UNK     0      14.072  17.169  -0.384  0.00  0.00     0.217 HD
ENDBRANCH   5  20
TORSDOF 8
ENDMDL
MODEL 2
REMARK VINA RESULT:      -6.7      1.155      2.240
REMARK  8 active torsions:
REMARK  status: ('A' for Active; 'I' for Inactive)
REMARK    1  A    between atoms: O_1  and  C_7 
REMARK    2  A    between atoms: O_2  and  C_15 
REMARK    3  A    between atoms: O_3  and  C_17 
REMARK    4  A    between atoms: N_4  and  C_5 
REMARK    5  A    between atoms: N_4  and  C_6 
REMARK    6  A    between atoms: C_6  and  C_7 
REMARK    7  A    between atoms: C_7  and  C_11 
REMARK    8  A    between atoms: C_14  and  C_17 
ROOT
HETATM    1  C   UNK     0      10.281  15.211   1.750  0.00  0.00    -0.027 A 
HETATM    2  C   UNK     0      10.785  15.716   0.564  0.00  0.00     0.022 A 
HETATM    3  C   UNK     0      10.864  15.505   2.970  0.00  0.00     0.012 A 
HETATM    4  C   UNK     0      11.908  16.542   0.600  0.00  0.00    -0.001 A 
HETATM    5  C   UNK     0      12.509  16.850   1.821  0.00  0.00     0.074 A 
HETATM    6  C   UNK     0      11.987  16.331   3.006  0.00  0.00     0.038 A 
ENDROOT
BRANCH   1   7
HETATM    7  C   UNK     0       9.062  14.315   1.712  0.00  0.00     0.179 C 
BRANCH   7   8
HETATM    8  O   UNK     0       8.506  14.373   0.399  0.00  0.00    -0.389 OA
HETATM    9  H   UNK     0       8.118  15.256   0.283  0.00  0.00     0.210 HD
ENDBRANCH   7   8
BRANCH   7  10
HETATM   10  C   UNK     0       8.017  14.741   2.750  0.00  0.00     0.306 C 
BRANCH  10  11
HETATM   11  N   UNK     0       7.812  13.695   3.738  0.00  0.00     0.094 N 
HETATM   12  H   UNK     0       6.888  13.283   3.617  0.00  0.00     0.317 HD
BRANCH  11  13
HETATM   13  C   UNK     0       7.949  14.232   5.096  0.00  0.00     0.147 C 
HETATM   14  C   UNK     0       8.013  15.761   5.012  0.00  0.00     0.048 C 
HETATM   15  C   UNK     0       6.730  13.800   5.917  0.00  0.00     0.048 C 
HETATM   16  C   UNK     0       9.233  13.685   5.731  0.00  0.00     0.048 C 
ENDBRANCH  11  13
ENDBRANCH  10  11
ENDBRANCH   7  10
ENDBRANCH   1   7
BRANCH   4  17
HETATM   17  C   UNK     0      12.455  17.088  -0.679  0.00  0.00     0.205 C 
BRANCH  17  18
HETATM   18  O   UNK     0      13.835  16.751  -0.723  0.00  0.00    -0.396 OA
HETATM   19  H   UNK     0      13.973  16.218  -1.524  0.00  0.00     0.209 HD
ENDBRANCH  17  18
ENDBRANCH   4  17
BRANCH   5  20
HETATM   20  O   UNK     0      13.608  17.654   1.873  0.00  0.00    -0.360 OA
HETATM   21  H   UNK     0      14.259  17.294   2.496  0.00  0.00     0.217 HD
ENDBRANCH   5  20
TORSDOF 8
ENDMDL
MODEL 3
REMARK VINA RESULT:      -6.6      1.014      2.062
REMARK  8 active torsions:
REMARK  status: ('A' for Active; 'I' for Inactive)
REMARK    1  A    between atoms: O_1  and  C_7 
REMARK    2  A    between atoms: O_2  and  C_15 
REMARK    3  A    between atoms: O_3  and  C_17 
REMARK    4  A    between atoms: N_4  and  C_5 
REMARK    5  A    between atoms: N_4  and  C_6 
REMARK    6  A    between atoms: C_6  and  C_7 
REMARK    7  A    between atoms: C_7  and  C_11 
REMARK    8  A    between atoms: C_14  and  C_17 
ROOT
HETATM    1  C   UNK     0      10.442  15.053   1.815  0.00  0.00    -0.027 A 
HETATM    2  C   UNK     0      10.875  15.603   0.621  0.00  0.00     0.022 A 
HETATM    3  C   UNK     0      11.046  15.368   3.019  0.00  0.00     0.012 A 
HETATM    4  C   UNK     0      11.947  16.495   0.632  0.00  0.00    -0.001 A 
HETATM    5  C   UNK     0      12.568  16.824   1.837  0.00  0.00     0.074 A 
HETATM    6  C   UNK     0      12.118  16.260   3.031  0.00  0.00     0.038 A 
ENDROOT
BRANCH   1   7
HETATM    7  C   UNK     0       9.279  14.085   1.803  0.00  0.00     0.179 C 
BRANCH   7   8
HETATM    8  O   UNK     0       8.091  14.818   1.507  0.00  0.00    -0.389 OA
HETATM    9  H   UNK     0       8.357  15.712   1.234  0.00  0.00     0.210 HD
ENDBRANCH   7   8
BRANCH   7  10
HETATM   10  C   UNK     0       9.135  13.361   3.147  0.00  0.00     0.306 C 
BRANCH  10  11
HETATM   11  N   UNK     0       7.830  13.613   3.733  0.00  0.00     0.094 N 
HETATM   12  H   UNK     0       7.294  14.235   3.128  0.00  0.00     0.317 HD
BRANCH  11  13
HETATM   13  C   UNK     0       7.968  14.206   5.068  0.00  0.00     0.147 C 
HETATM   14  C   UNK     0       9.256  13.675   5.707  0.00  0.00     0.048 C 
HETATM   15  C   UNK     0       8.044  15.729   4.919  0.00  0.00     0.048 C 
HETATM   16  C   UNK     0       6.756  13.819   5.923  0.00  0.00     0.048 C 
ENDBRANCH  11  13
ENDBRANCH  10  11
ENDBRANCH   7  10
ENDBRANCH   1   7
BRANCH   4  17
HETATM   17  C   UNK     0      12.417  17.089  -0.655  0.00  0.00     0.205 C 
BRANCH  17  18
HETATM   18  O   UNK     0      13.797  16.772  -0.786  0.00  0.00    -0.396 OA
HETATM   19  H   UNK     0      13.849  15.872  -1.153  0.00  0.00     0.209 HD
ENDBRANCH  17  18
ENDBRANCH   4  17
BRANCH   5  20
HETATM   20  O   UNK     0      13.617  17.693   1.866  0.00  0.00    -0.360 OA
HETATM   21  H   UNK     0      13.887  17.924   0.963  0.00  0.00     0.217 HD
ENDBRANCH   5  20
TORSDOF 8
ENDMDL
