MODEL 1
REMARK VINA RESULT:      -7.1      0.000      0.000
REMARK  8 active torsions:
REMARK  status: ('A' for Active; 'I' for Inactive)
REMARK    1  A    between atoms: O_1  and  C_7 
REMARK    2  A    between atoms: O_2  and  C_15 
REMARK    3  A    between atoms: O_3  and  C_17 
REMARK    4  A    between atoms: N_4  and  C_5 
REMARK    5  A    between atoms: N_4  and  C_6 
REMARK    6  A    between atoms: C_6  and  C_7 
REMARK    7  A    between atoms: C_7  and  C_11 
REMARK    8  A    between atoms: C_14  and  C_17 
ROOT
HETATM    1  C   UNK     0      53.672 -11.686  30.627  0.00  0.00    -0.027 A 
HETATM    2  C   UNK     0      53.683 -11.360  31.972  0.00  0.00     0.022 A 
HETATM    3  C   UNK     0      54.670 -12.459  30.059  0.00  0.00     0.012 A 
HETATM    4  C   UNK     0      54.726 -11.822  32.775  0.00  0.00    -0.001 A 
HETATM    5  C   UNK     0      55.742 -12.601  32.220  0.00  0.00     0.074 A 
HETATM    6  C   UNK     0      55.713 -12.920  30.862  0.00  0.00     0.038 A 
ENDROOT
BRANCH   1   7
HETATM    7  C   UNK     0      52.540 -11.187  29.755  0.00  0.00     0.179 C 
BRANCH   7   8
HETATM    8  O   UNK     0      52.397  -9.784  29.970  0.00  0.00    -0.389 OA
HETATM    9  H   UNK     0      52.191  -9.375  29.112  0.00  0.00     0.210 HD
ENDBRANCH   7   8
BRANCH   7  10
HETATM   10  C   UNK     0      51.225 -11.909  30.073  0.00  0.00     0.306 C 
BRANCH  10  11
HETATM   11  N   UNK     0      51.132 -13.160  29.339  0.00  0.00     0.094 N 
HETATM   12  H   UNK     0      50.376 -13.105  28.658  0.00  0.00     0.317 HD
BRANCH  11  13
HETATM   13  C   UNK     0      50.902 -14.281  30.257  0.00  0.00     0.147 C 
HETATM   14  C   UNK     0      49.814 -15.183  29.664  0.00  0.00     0.048 C 
HETATM   15  C   UNK     0      52.210 -15.064  30.410  0.00  0.00     0.048 C 
HETATM   16  C   UNK     0      50.451 -13.737  31.618  0.00  0.00     0.048 C 
ENDBRANCH  11  13
ENDBRANCH  10  11
ENDBRANCH   7  10
ENDBRANCH   1   7
BRANCH   4  17
HETATM   17  C   UNK     0      54.742 -11.470  34.226  0.00  0.00     0.205 C 
BRANCH  17  18
HETATM   18  O   UNK     0      55.965 -10.794  34.483  0.00  0.00    -0.396 OA
HETATM   19  H   UNK     0      56.204 -10.978  35.407  0.00  0.00     0.209 HD
ENDBRANCH  17  18
ENDBRANCH   4  17
BRANCH   5  20
HETATM   20  O   UNK     0      56.768 -13.059  32.990  0.00  0.00    -0.360 OA
HETATM   21  H   UNK     0      56.650 -12.775  33.910  0.00  0.00     0.217 HD
ENDBRANCH   5  20
TORSDOF 8
ENDMDL
MODEL 2
REMARK VINA RESULT:      -6.9      2.859      5.354
REMARK  8 active torsions:
REMARK  status: ('A' for Active; 'I' for Inactive)
REMARK    1  A    between atoms: O_1  and  C_7 
REMARK    2  A    between atoms: O_2  and  C_15 
REMARK    3  A    between atoms: O_3  and  C_17 
REMARK    4  A    between atoms: N_4  and  C_5 
REMARK    5  A    between atoms: N_4  and  C_6 
REMARK    6  A    between atoms: C_6  and  C_7 
REMARK    7  A    between atoms: C_7  and  C_11 
REMARK    8  A    between atoms: C_14  and  C_17 
ROOT
HETATM    1  C   UNK     0      52.009 -11.004  29.228  0.00  0.00    -0.027 A 
HETATM    2  C   UNK     0      52.931 -10.861  28.205  0.00  0.00     0.022 A 
HETATM    3  C   UNK     0      51.458  -9.905  29.864  0.00  0.00     0.012 A 
HETATM    4  C   UNK     0      53.314  -9.581  27.808  0.00  0.00    -0.001 A 
HETATM    5  C   UNK     0      52.769  -8.462  28.439  0.00  0.00     0.074 A 
HETATM    6  C   UNK     0      51.840  -8.624  29.467  0.00  0.00     0.038 A 
ENDROOT
BRANCH   1   7
HETATM    7  C   UNK     0      51.593 -12.393  29.659  0.00  0.00     0.179 C 
BRANCH   7   8
HETATM    8  O   UNK     0      50.802 -12.276  30.841  0.00  0.00    -0.389 OA
HETATM    9  H   UNK     0      51.405 -12.088  31.580  0.00  0.00     0.210 HD
ENDBRANCH   7   8
BRANCH   7  10
HETATM   10  C   UNK     0      52.810 -13.289  29.920  0.00  0.00     0.306 C 
BRANCH  10  11
HETATM   11  N   UNK     0      53.120 -13.338  31.339  0.00  0.00     0.094 N 
HETATM   12  H   UNK     0      52.396 -12.853  31.868  0.00  0.00     0.317 HD
BRANCH  11  13
HETATM   13  C   UNK     0      54.429 -12.730  31.603  0.00  0.00     0.147 C 
HETATM   14  C   UNK     0      54.211 -11.286  32.069  0.00  0.00     0.048 C 
HETATM   15  C   UNK     0      55.131 -13.537  32.700  0.00  0.00     0.048 C 
HETATM   16  C   UNK     0      55.265 -12.748  30.318  0.00  0.00     0.048 C 
ENDBRANCH  11  13
ENDBRANCH  10  11
ENDBRANCH   7  10
ENDBRANCH   1   7
BRANCH   4  17
HETATM   17  C   UNK     0      54.310  -9.425  26.705  0.00  0.00     0.205 C 
BRANCH  17  18
HETATM   18  O   UNK     0      53.698  -8.635  25.694  0.00  0.00    -0.396 OA
HETATM   19  H   UNK     0      53.382  -9.247  25.007  0.00  0.00     0.209 HD
ENDBRANCH  17  18
ENDBRANCH   4  17
BRANCH   5  20
HETATM   20  O   UNK     0      53.132  -7.204  28.063  0.00  0.00    -0.360 OA
HETATM   21  H   UNK     0      52.401  -6.584  28.214  0.00  0.00     0.217 HD
ENDBRANCH   5  20
TORSDOF 8
ENDMDL
MODEL 3
REMARK VINA RESULT:      -6.8      2.825      5.041
REMARK  8 active torsions:
REMARK  status: ('A' for Active; 'I' for Inactive)
REMARK    1  A    between atoms: O_1  and  C_7 
REMARK    2  A    between atoms: O_2  and  C_15 
REMARK    3  A    between atoms: O_3  and  C_17 
REMARK    4  A    between atoms: N_4  and  C_5 
REMARK    5  A    between atoms: N_4  and  C_6 
REMARK    6  A    between atoms: C_6  and  C_7 
REMARK    7  A    between atoms: C_7  and  C_11 
REMARK    8  A    between atoms: C_14  and  C_17 
ROOT
HETATM    1  C   UNK     0      52.236 -11.588  28.701  0.00  0.00    -0.027 A 
HETATM    2  C   UNK     0      51.938 -10.299  29.111  0.00  0.00     0.022 A 
HETATM    3  C   UNK     0      52.973 -11.832  27.555  0.00  0.00     0.012 A 
HETATM    4  C   UNK     0      52.391  -9.222  28.350  0.00  0.00    -0.001 A 
HETATM    5  C   UNK     0      53.134  -9.449  27.191  0.00  0.00     0.074 A 
HETATM    6  C   UNK     0      53.425 -10.754  26.794  0.00  0.00     0.038 A 
ENDROOT
BRANCH   1   7
HETATM    7  C   UNK     0      51.746 -12.757  29.527  0.00  0.00     0.179 C 
BRANCH   7   8
HETATM    8  O   UNK     0      50.992 -12.244  30.624  0.00  0.00    -0.389 OA
HETATM    9  H   UNK     0      51.039 -12.897  31.343  0.00  0.00     0.210 HD
ENDBRANCH   7   8
BRANCH   7  10
HETATM   10  C   UNK     0      52.912 -13.613  30.037  0.00  0.00     0.306 C 
BRANCH  10  11
HETATM   11  N   UNK     0      53.151 -13.371  31.450  0.00  0.00     0.094 N 
HETATM   12  H   UNK     0      52.394 -12.809  31.837  0.00  0.00     0.317 HD
BRANCH  11  13
HETATM   13  C   UNK     0      54.435 -12.690  31.647  0.00  0.00     0.147 C 
HETATM   14  C   UNK     0      54.163 -11.216  31.963  0.00  0.00     0.048 C 
HETATM   15  C   UNK     0      55.166 -13.354  32.819  0.00  0.00     0.048 C 
HETATM   16  C   UNK     0      55.274 -12.809  30.369  0.00  0.00     0.048 C 
ENDBRANCH  11  13
ENDBRANCH  10  11
ENDBRANCH   7  10
ENDBRANCH   1   7
BRANCH   4  17
HETATM   17  C   UNK     0      52.069  -7.831  28.789  0.00  0.00     0.205 C 
BRANCH  17  18
HETATM   18  O   UNK     0      53.286  -7.096  28.782  0.00  0.00    -0.396 OA
HETATM   19  H   UNK     0      53.993  -7.717  28.535  0.00  0.00     0.209 HD
ENDBRANCH  17  18
ENDBRANCH   4  17
BRANCH   5  20
HETATM   20  O   UNK     0      53.583  -8.408  26.436  0.00  0.00    -0.360 OA
HETATM   21  H   UNK     0      54.532  -8.269  26.585  0.00  0.00     0.217 HD
ENDBRANCH   5  20
TORSDOF 8
ENDMDL
