MODEL 1
REMARK VINA RESULT:      -6.8      0.000      0.000
REMARK  8 active torsions:
REMARK  status: ('A' for Active; 'I' for Inactive)
REMARK    1  A    between atoms: O_1  and  C_7 
REMARK    2  A    between atoms: O_2  and  C_15 
REMARK    3  A    between atoms: O_3  and  C_17 
REMARK    4  A    between atoms: N_4  and  C_5 
REMARK    5  A    between atoms: N_4  and  C_6 
REMARK    6  A    between atoms: C_6  and  C_7 
REMARK    7  A    between atoms: C_7  and  C_11 
REMARK    8  A    between atoms: C_14  and  C_17 
ROOT
HETATM    1  C   UNK     0     -24.128 -14.821  29.204  0.00  0.00    -0.027 A 
HETATM    2  C   UNK     0     -24.302 -15.233  30.514  0.00  0.00     0.022 A 
HETATM    3  C   UNK     0     -22.919 -14.317  28.757  0.00  0.00     0.012 A 
HETATM    4  C   UNK     0     -23.234 -15.136  31.405  0.00  0.00    -0.001 A 
HETATM    5  C   UNK     0     -22.008 -14.630  30.972  0.00  0.00     0.074 A 
HETATM    6  C   UNK     0     -21.851 -14.220  29.648  0.00  0.00     0.038 A 
ENDROOT
BRANCH   1   7
HETATM    7  C   UNK     0     -25.287 -14.926  28.237  0.00  0.00     0.179 C 
BRANCH   7   8
HETATM    8  O   UNK     0     -25.021 -14.071  27.126  0.00  0.00    -0.389 OA
HETATM    9  H   UNK     0     -24.218 -13.564  27.332  0.00  0.00     0.210 HD
ENDBRANCH   7   8
BRANCH   7  10
HETATM   10  C   UNK     0     -26.613 -14.536  28.902  0.00  0.00     0.306 C 
BRANCH  10  11
HETATM   11  N   UNK     0     -27.743 -15.008  28.119  0.00  0.00     0.094 N 
HETATM   12  H   UNK     0     -27.628 -14.729  27.146  0.00  0.00     0.317 HD
BRANCH  11  13
HETATM   13  C   UNK     0     -28.999 -14.471  28.652  0.00  0.00     0.147 C 
HETATM   14  C   UNK     0     -29.988 -14.301  27.493  0.00  0.00     0.048 C 
HETATM   15  C   UNK     0     -29.557 -15.461  29.680  0.00  0.00     0.048 C 
HETATM   16  C   UNK     0     -28.730 -13.116  29.318  0.00  0.00     0.048 C 
ENDBRANCH  11  13
ENDBRANCH  10  11
ENDBRANCH   7  10
ENDBRANCH   1   7
BRANCH   4  17
HETATM   17  C   UNK     0     -23.420 -15.579  32.820  0.00  0.00     0.205 C 
BRANCH  17  18
HETATM   18  O   UNK     0     -22.675 -16.777  32.987  0.00  0.00    -0.396 OA
HETATM   19  H   UNK     0     -22.682 -16.988  33.936  0.00  0.00     0.209 HD
ENDBRANCH  17  18
ENDBRANCH   4  17
BRANCH   5  20
HETATM   20  O   UNK     0     -20.954 -14.528  31.830  0.00  0.00    -0.360 OA
HETATM   21  H   UNK     0     -20.230 -15.106  31.543  0.00  0.00     0.217 HD
ENDBRANCH   5  20
TORSDOF 8
ENDMDL
MODEL 2
REMARK VINA RESULT:      -6.5      4.691      5.698
REMARK  8 active torsions:
REMARK  status: ('A' for Active; 'I' for Inactive)
REMARK    1  A    between atoms: O_1  and  C_7 
REMARK    2  A    between atoms: O_2  and  C_15 
REMARK    3  A    between atoms: O_3  and  C_17 
REMARK    4  A    between atoms: N_4  and  C_5 
REMARK    5  A    between atoms: N_4  and  C_6 
REMARK    6  A    between atoms: C_6  and  C_7 
REMARK    7  A    between atoms: C_7  and  C_11 
REMARK    8  A    between atoms: C_14  and  C_17 
ROOT
HETATM    1  C   UNK     0     -26.407 -16.876  25.872  0.00  0.00    -0.027 A 
HETATM    2  C   UNK     0     -25.707 -15.746  26.259  0.00  0.00     0.022 A 
HETATM    3  C   UNK     0     -25.954 -17.695  24.852  0.00  0.00     0.012 A 
HETATM    4  C   UNK     0     -24.518 -15.425  25.605  0.00  0.00    -0.001 A 
HETATM    5  C   UNK     0     -24.047 -16.239  24.575  0.00  0.00     0.074 A 
HETATM    6  C   UNK     0     -24.765 -17.374  24.199  0.00  0.00     0.038 A 
ENDROOT
BRANCH   1   7
HETATM    7  C   UNK     0     -27.697 -17.224  26.582  0.00  0.00     0.179 C 
BRANCH   7   8
HETATM    8  O   UNK     0     -28.092 -18.533  26.173  0.00  0.00    -0.389 OA
HETATM    9  H   UNK     0     -27.477 -19.166  26.581  0.00  0.00     0.210 HD
ENDBRANCH   7   8
BRANCH   7  10
HETATM   10  C   UNK     0     -28.805 -16.212  26.265  0.00  0.00     0.306 C 
BRANCH  10  11
HETATM   11  N   UNK     0     -29.933 -16.865  25.622  0.00  0.00     0.094 N 
HETATM   12  H   UNK     0     -29.615 -17.368  24.794  0.00  0.00     0.317 HD
BRANCH  11  13
HETATM   13  C   UNK     0     -30.956 -15.881  25.251  0.00  0.00     0.147 C 
HETATM   14  C   UNK     0     -30.865 -15.626  23.743  0.00  0.00     0.048 C 
HETATM   15  C   UNK     0     -32.334 -16.451  25.606  0.00  0.00     0.048 C 
HETATM   16  C   UNK     0     -30.710 -14.578  26.022  0.00  0.00     0.048 C 
ENDBRANCH  11  13
ENDBRANCH  10  11
ENDBRANCH   7  10
ENDBRANCH   1   7
BRANCH   4  17
HETATM   17  C   UNK     0     -23.762 -14.206  26.020  0.00  0.00     0.205 C 
BRANCH  17  18
HETATM   18  O   UNK     0     -23.854 -13.270  24.954  0.00  0.00    -0.396 OA
HETATM   19  H   UNK     0     -24.614 -12.695  25.145  0.00  0.00     0.209 HD
ENDBRANCH  17  18
ENDBRANCH   4  17
BRANCH   5  20
HETATM   20  O   UNK     0     -22.887 -15.940  23.925  0.00  0.00    -0.360 OA
HETATM   21  H   UNK     0     -22.728 -14.983  23.946  0.00  0.00     0.217 HD
ENDBRANCH   5  20
TORSDOF 8
ENDMDL
MODEL 3
REMARK VINA RESULT:      -6.5      3.544      5.138
REMARK  8 active torsions:
REMARK  status: ('A' for Active; 'I' for Inactive)
REMARK    1  A    between atoms: O_1  and  C_7 
REMARK    2  A    between atoms: O_2  and  C_15 
REMARK    3  A    between atoms: O_3  and  C_17 
REMARK    4  A    between atoms: N_4  and  C_5 
REMARK    5  A    between atoms: N_4  and  C_6 
REMARK    6  A    between atoms: C_6  and  C_7 
REMARK    7  A    between atoms: C_7  and  C_11 
REMARK    8  A    between atoms: C_14  and  C_17 
ROOT
HETATM    1  C   UNK     0     -22.805 -13.635  25.752  0.00  0.00    -0.027 A 
HETATM    2  C   UNK     0     -21.577 -13.785  26.373  0.00  0.00     0.022 A 
HETATM    3  C   UNK     0     -23.025 -12.645  24.811  0.00  0.00     0.012 A 
HETATM    4  C   UNK     0     -20.537 -12.917  26.041  0.00  0.00    -0.001 A 
HETATM    5  C   UNK     0     -20.741 -11.913  25.094  0.00  0.00     0.074 A 
HETATM    6  C   UNK     0     -21.985 -11.777  24.479  0.00  0.00     0.038 A 
ENDROOT
BRANCH   1   7
HETATM    7  C   UNK     0     -23.934 -14.577  26.111  0.00  0.00     0.179 C 
BRANCH   7   8
HETATM    8  O   UNK     0     -25.086 -14.199  25.360  0.00  0.00    -0.389 OA
HETATM    9  H   UNK     0     -24.814 -14.102  24.433  0.00  0.00     0.210 HD
ENDBRANCH   7   8
BRANCH   7  10
HETATM   10  C   UNK     0     -24.242 -14.539  27.613  0.00  0.00     0.306 C 
BRANCH  10  11
HETATM   11  N   UNK     0     -25.606 -14.097  27.849  0.00  0.00     0.094 N 
HETATM   12  H   UNK     0     -25.599 -13.188  28.312  0.00  0.00     0.317 HD
BRANCH  11  13
HETATM   13  C   UNK     0     -26.330 -15.073  28.670  0.00  0.00     0.147 C 
HETATM   14  C   UNK     0     -25.401 -15.558  29.787  0.00  0.00     0.048 C 
HETATM   15  C   UNK     0     -27.563 -14.388  29.270  0.00  0.00     0.048 C 
HETATM   16  C   UNK     0     -26.760 -16.255  27.792  0.00  0.00     0.048 C 
ENDBRANCH  11  13
ENDBRANCH  10  11
ENDBRANCH   7  10
ENDBRANCH   1   7
BRANCH   4  17
HETATM   17  C   UNK     0     -19.211 -13.076  26.711  0.00  0.00     0.205 C 
BRANCH  17  18
HETATM   18  O   UNK     0     -18.992 -11.910  27.492  0.00  0.00    -0.396 OA
HETATM   19  H   UNK     0     -18.035 -11.854  27.659  0.00  0.00     0.209 HD
ENDBRANCH  17  18
ENDBRANCH   4  17
BRANCH   5  20
HETATM   20  O   UNK     0     -19.736 -11.056  24.760  0.00  0.00    -0.360 OA
HETATM   21  H   UNK     0     -19.304 -10.716  25.560  0.00  0.00     0.217 HD
ENDBRANCH   5  20
TORSDOF 8
ENDMDL
