MODEL 1
REMARK VINA RESULT:      -7.0      0.000      0.000
REMARK  8 active torsions:
REMARK  status: ('A' for Active; 'I' for Inactive)
REMARK    1  A    between atoms: O_1  and  C_7 
REMARK    2  A    between atoms: O_2  and  C_15 
REMARK    3  A    between atoms: O_3  and  C_17 
REMARK    4  A    between atoms: N_4  and  C_5 
REMARK    5  A    between atoms: N_4  and  C_6 
REMARK    6  A    between atoms: C_6  and  C_7 
REMARK    7  A    between atoms: C_7  and  C_11 
REMARK    8  A    between atoms: C_14  and  C_17 
ROOT
HETATM    1  C   UNK     0     -22.557 -12.456  24.919  0.00  0.00    -0.027 A 
HETATM    2  C   UNK     0     -21.981 -12.867  26.109  0.00  0.00     0.022 A 
HETATM    3  C   UNK     0     -21.844 -11.732  23.981  0.00  0.00     0.012 A 
HETATM    4  C   UNK     0     -20.650 -12.542  26.368  0.00  0.00    -0.001 A 
HETATM    5  C   UNK     0     -19.915 -11.812  25.432  0.00  0.00     0.074 A 
HETATM    6  C   UNK     0     -20.512 -11.407  24.239  0.00  0.00     0.038 A 
ENDROOT
BRANCH   1   7
HETATM    7  C   UNK     0     -24.002 -12.809  24.638  0.00  0.00     0.179 C 
BRANCH   7   8
HETATM    8  O   UNK     0     -24.780 -11.618  24.737  0.00  0.00    -0.389 OA
HETATM    9  H   UNK     0     -24.943 -11.298  23.834  0.00  0.00     0.210 HD
ENDBRANCH   7   8
BRANCH   7  10
HETATM   10  C   UNK     0     -24.524 -13.867  25.618  0.00  0.00     0.306 C 
BRANCH  10  11
HETATM   11  N   UNK     0     -25.886 -14.251  25.288  0.00  0.00     0.094 N 
HETATM   12  H   UNK     0     -26.543 -13.701  25.840  0.00  0.00     0.317 HD
BRANCH  11  13
HETATM   13  C   UNK     0     -26.094 -15.681  25.536  0.00  0.00     0.147 C 
HETATM   14  C   UNK     0     -24.915 -16.458  24.939  0.00  0.00     0.048 C 
HETATM   15  C   UNK     0     -26.161 -15.909  27.050  0.00  0.00     0.048 C 
HETATM   16  C   UNK     0     -27.405 -16.125  24.878  0.00  0.00     0.048 C 
ENDBRANCH  11  13
ENDBRANCH  10  11
ENDBRANCH   7  10
ENDBRANCH   1   7
BRANCH   4  17
HETATM   17  C   UNK     0     -20.026 -12.982  27.652  0.00  0.00     0.205 C 
BRANCH  17  18
HETATM   18  O   UNK     0     -19.397 -11.845  28.226  0.00  0.00    -0.396 OA
HETATM   19  H   UNK     0     -18.456 -12.063  28.335  0.00  0.00     0.209 HD
ENDBRANCH  17  18
ENDBRANCH   4  17
BRANCH   5  20
HETATM   20  O   UNK     0     -18.614 -11.486  25.670  0.00  0.00    -0.360 OA
HETATM   21  H   UNK     0     -18.028 -11.996  25.088  0.00  0.00     0.217 HD
ENDBRANCH   5  20
TORSDOF 8
ENDMDL
MODEL 2
REMARK VINA RESULT:      -6.7      1.607      2.221
REMARK  8 active torsions:
REMARK  status: ('A' for Active; 'I' for Inactive)
REMARK    1  A    between atoms: O_1  and  C_7 
REMARK    2  A    between atoms: O_2  and  C_15 
REMARK    3  A    between atoms: O_3  and  C_17 
REMARK    4  A    between atoms: N_4  and  C_5 
REMARK    5  A    between atoms: N_4  and  C_6 
REMARK    6  A    between atoms: C_6  and  C_7 
REMARK    7  A    between atoms: C_7  and  C_11 
REMARK    8  A    between atoms: C_14  and  C_17 
ROOT
HETATM    1  C   UNK     0     -23.164 -13.377  25.587  0.00  0.00    -0.027 A 
HETATM    2  C   UNK     0     -22.187 -13.588  26.544  0.00  0.00     0.022 A 
HETATM    3  C   UNK     0     -22.960 -12.520  24.520  0.00  0.00     0.012 A 
HETATM    4  C   UNK     0     -20.967 -12.921  26.430  0.00  0.00    -0.001 A 
HETATM    5  C   UNK     0     -20.744 -12.054  25.360  0.00  0.00     0.074 A 
HETATM    6  C   UNK     0     -21.741 -11.853  24.406  0.00  0.00     0.038 A 
ENDROOT
BRANCH   1   7
HETATM    7  C   UNK     0     -24.488 -14.100  25.711  0.00  0.00     0.179 C 
BRANCH   7   8
HETATM    8  O   UNK     0     -25.493 -13.303  25.087  0.00  0.00    -0.389 OA
HETATM    9  H   UNK     0     -25.186 -12.381  25.099  0.00  0.00     0.210 HD
ENDBRANCH   7   8
BRANCH   7  10
HETATM   10  C   UNK     0     -24.851 -14.363  27.177  0.00  0.00     0.306 C 
BRANCH  10  11
HETATM   11  N   UNK     0     -26.293 -14.416  27.351  0.00  0.00     0.094 N 
HETATM   12  H   UNK     0     -26.699 -13.504  27.144  0.00  0.00     0.317 HD
BRANCH  11  13
HETATM   13  C   UNK     0     -26.633 -14.819  28.720  0.00  0.00     0.147 C 
HETATM   14  C   UNK     0     -26.853 -16.335  28.743  0.00  0.00     0.048 C 
HETATM   15  C   UNK     0     -25.470 -14.441  29.644  0.00  0.00     0.048 C 
HETATM   16  C   UNK     0     -27.911 -14.094  29.159  0.00  0.00     0.048 C 
ENDBRANCH  11  13
ENDBRANCH  10  11
ENDBRANCH   7  10
ENDBRANCH   1   7
BRANCH   4  17
HETATM   17  C   UNK     0     -19.912 -13.147  27.462  0.00  0.00     0.205 C 
BRANCH  17  18
HETATM   18  O   UNK     0     -19.466 -11.869  27.895  0.00  0.00    -0.396 OA
HETATM   19  H   UNK     0     -18.703 -11.631  27.341  0.00  0.00     0.209 HD
ENDBRANCH  17  18
ENDBRANCH   4  17
BRANCH   5  20
HETATM   20  O   UNK     0     -19.559 -11.394  25.234  0.00  0.00    -0.360 OA
HETATM   21  H   UNK     0     -18.823 -12.026  25.213  0.00  0.00     0.217 HD
ENDBRANCH   5  20
TORSDOF 8
ENDMDL
MODEL 3
REMARK VINA RESULT:      -6.7      1.558      2.158
REMARK  8 active torsions:
REMARK  status: ('A' for Active; 'I' for Inactive)
REMARK    1  A    between atoms: O_1  and  C_7 
REMARK    2  A    between atoms: O_2  and  C_15 
REMARK    3  A    between atoms: O_3  and  C_17 
REMARK    4  A    between atoms: N_4  and  C_5 
REMARK    5  A    between atoms: N_4  and  C_6 
REMARK    6  A    between atoms: C_6  and  C_7 
REMARK    7  A    between atoms: C_7  and  C_11 
REMARK    8  A    between atoms: C_14  and  C_17 
ROOT
HETATM    1  C   UNK     0     -23.506 -13.041  25.570  0.00  0.00    -0.027 A 
HETATM    2  C   UNK     0     -22.214 -12.988  26.064  0.00  0.00     0.022 A 
HETATM    3  C   UNK     0     -23.866 -12.380  24.409  0.00  0.00     0.012 A 
HETATM    4  C   UNK     0     -21.253 -12.249  25.375  0.00  0.00    -0.001 A 
HETATM    5  C   UNK     0     -21.598 -11.576  24.203  0.00  0.00     0.074 A 
HETATM    6  C   UNK     0     -22.905 -11.641  23.720  0.00  0.00     0.038 A 
ENDROOT
BRANCH   1   7
HETATM    7  C   UNK     0     -24.550 -13.843  26.317  0.00  0.00     0.179 C 
BRANCH   7   8
HETATM    8  O   UNK     0     -24.014 -14.197  27.591  0.00  0.00    -0.389 OA
HETATM    9  H   UNK     0     -23.539 -15.038  27.485  0.00  0.00     0.210 HD
ENDBRANCH   7   8
BRANCH   7  10
HETATM   10  C   UNK     0     -24.954 -15.102  25.541  0.00  0.00     0.306 C 
BRANCH  10  11
HETATM   11  N   UNK     0     -26.354 -15.046  25.157  0.00  0.00     0.094 N 
HETATM   12  H   UNK     0     -26.825 -14.306  25.677  0.00  0.00     0.317 HD
BRANCH  11  13
HETATM   13  C   UNK     0     -27.011 -16.333  25.408  0.00  0.00     0.147 C 
HETATM   14  C   UNK     0     -26.970 -16.617  26.914  0.00  0.00     0.048 C 
HETATM   15  C   UNK     0     -28.464 -16.242  24.929  0.00  0.00     0.048 C 
HETATM   16  C   UNK     0     -26.272 -17.437  24.643  0.00  0.00     0.048 C 
ENDBRANCH  11  13
ENDBRANCH  10  11
ENDBRANCH   7  10
ENDBRANCH   1   7
BRANCH   4  17
HETATM   17  C   UNK     0     -19.858 -12.189  25.907  0.00  0.00     0.205 C 
BRANCH  17  18
HETATM   18  O   UNK     0     -19.777 -13.117  26.980  0.00  0.00    -0.396 OA
HETATM   19  H   UNK     0     -18.838 -13.193  27.220  0.00  0.00     0.209 HD
ENDBRANCH  17  18
ENDBRANCH   4  17
BRANCH   5  20
HETATM   20  O   UNK     0     -20.671 -10.849  23.518  0.00  0.00    -0.360 OA
HETATM   21  H   UNK     0     -20.846  -9.900  23.620  0.00  0.00     0.217 HD
ENDBRANCH   5  20
TORSDOF 8
ENDMDL
