MODEL 1
REMARK VINA RESULT:      -6.6      0.000      0.000
REMARK  8 active torsions:
REMARK  status: ('A' for Active; 'I' for Inactive)
REMARK    1  A    between atoms: O_1  and  C_7 
REMARK    2  A    between atoms: O_2  and  C_15 
REMARK    3  A    between atoms: O_3  and  C_17 
REMARK    4  A    between atoms: N_4  and  C_5 
REMARK    5  A    between atoms: N_4  and  C_6 
REMARK    6  A    between atoms: C_6  and  C_7 
REMARK    7  A    between atoms: C_7  and  C_11 
REMARK    8  A    between atoms: C_14  and  C_17 
ROOT
HETATM    1  C   UNK     0     -37.385  51.371  15.516  0.00  0.00    -0.027 A 
HETATM    2  C   UNK     0     -36.039  51.049  15.508  0.00  0.00     0.022 A 
HETATM    3  C   UNK     0     -37.817  52.685  15.476  0.00  0.00     0.012 A 
HETATM    4  C   UNK     0     -35.095  52.075  15.459  0.00  0.00    -0.001 A 
HETATM    5  C   UNK     0     -35.512  53.406  15.419  0.00  0.00     0.074 A 
HETATM    6  C   UNK     0     -36.873  53.711  15.428  0.00  0.00     0.038 A 
ENDROOT
BRANCH   1   7
HETATM    7  C   UNK     0     -38.410  50.258  15.568  0.00  0.00     0.179 C 
BRANCH   7   8
HETATM    8  O   UNK     0     -37.757  49.034  15.236  0.00  0.00    -0.389 OA
HETATM    9  H   UNK     0     -37.120  48.840  15.943  0.00  0.00     0.210 HD
ENDBRANCH   7   8
BRANCH   7  10
HETATM   10  C   UNK     0     -39.573  50.519  14.603  0.00  0.00     0.306 C 
BRANCH  10  11
HETATM   11  N   UNK     0     -40.394  49.330  14.450  0.00  0.00     0.094 N 
HETATM   12  H   UNK     0     -39.844  48.583  14.028  0.00  0.00     0.317 HD
BRANCH  11  13
HETATM   13  C   UNK     0     -41.570  49.618  13.622  0.00  0.00     0.147 C 
HETATM   14  C   UNK     0     -41.578  48.653  12.431  0.00  0.00     0.048 C 
HETATM   15  C   UNK     0     -42.829  49.414  14.473  0.00  0.00     0.048 C 
HETATM   16  C   UNK     0     -41.499  51.067  13.126  0.00  0.00     0.048 C 
ENDBRANCH  11  13
ENDBRANCH  10  11
ENDBRANCH   7  10
ENDBRANCH   1   7
BRANCH   4  17
HETATM   17  C   UNK     0     -33.642  51.731  15.451  0.00  0.00     0.205 C 
BRANCH  17  18
HETATM   18  O   UNK     0     -33.183  51.872  14.114  0.00  0.00    -0.396 OA
HETATM   19  H   UNK     0     -33.945  52.153  13.579  0.00  0.00     0.209 HD
ENDBRANCH  17  18
ENDBRANCH   4  17
BRANCH   5  20
HETATM   20  O   UNK     0     -34.603  54.420  15.372  0.00  0.00    -0.360 OA
HETATM   21  H   UNK     0     -33.834  54.206  15.924  0.00  0.00     0.217 HD
ENDBRANCH   5  20
TORSDOF 8
ENDMDL
MODEL 2
REMARK VINA RESULT:      -6.5      2.652      6.975
REMARK  8 active torsions:
REMARK  status: ('A' for Active; 'I' for Inactive)
REMARK    1  A    between atoms: O_1  and  C_7 
REMARK    2  A    between atoms: O_2  and  C_15 
REMARK    3  A    between atoms: O_3  and  C_17 
REMARK    4  A    between atoms: N_4  and  C_5 
REMARK    5  A    between atoms: N_4  and  C_6 
REMARK    6  A    between atoms: C_6  and  C_7 
REMARK    7  A    between atoms: C_7  and  C_11 
REMARK    8  A    between atoms: C_14  and  C_17 
ROOT
HETATM    1  C   UNK     0     -36.553  51.149  15.242  0.00  0.00    -0.027 A 
HETATM    2  C   UNK     0     -37.717  51.334  14.517  0.00  0.00     0.022 A 
HETATM    3  C   UNK     0     -36.507  50.301  16.335  0.00  0.00     0.012 A 
HETATM    4  C   UNK     0     -38.871  50.649  14.896  0.00  0.00    -0.001 A 
HETATM    5  C   UNK     0     -38.843  49.790  15.995  0.00  0.00     0.074 A 
HETATM    6  C   UNK     0     -37.661  49.616  16.715  0.00  0.00     0.038 A 
ENDROOT
BRANCH   1   7
HETATM    7  C   UNK     0     -35.301  51.891  14.831  0.00  0.00     0.179 C 
BRANCH   7   8
HETATM    8  O   UNK     0     -34.796  51.290  13.640  0.00  0.00    -0.389 OA
HETATM    9  H   UNK     0     -35.517  50.773  13.244  0.00  0.00     0.210 HD
ENDBRANCH   7   8
BRANCH   7  10
HETATM   10  C   UNK     0     -34.237  51.857  15.935  0.00  0.00     0.306 C 
BRANCH  10  11
HETATM   11  N   UNK     0     -33.147  50.965  15.576  0.00  0.00     0.094 N 
HETATM   12  H   UNK     0     -33.054  50.234  16.280  0.00  0.00     0.317 HD
BRANCH  11  13
HETATM   13  C   UNK     0     -31.889  51.710  15.455  0.00  0.00     0.147 C 
HETATM   14  C   UNK     0     -30.929  51.228  16.548  0.00  0.00     0.048 C 
HETATM   15  C   UNK     0     -31.292  51.437  14.070  0.00  0.00     0.048 C 
HETATM   16  C   UNK     0     -32.169  53.208  15.622  0.00  0.00     0.048 C 
ENDBRANCH  11  13
ENDBRANCH  10  11
ENDBRANCH   7  10
ENDBRANCH   1   7
BRANCH   4  17
HETATM   17  C   UNK     0     -40.129  50.848  14.115  0.00  0.00     0.205 C 
BRANCH  17  18
HETATM   18  O   UNK     0     -40.567  49.564  13.689  0.00  0.00    -0.396 OA
HETATM   19  H   UNK     0     -41.276  49.289  14.296  0.00  0.00     0.209 HD
ENDBRANCH  17  18
ENDBRANCH   4  17
BRANCH   5  20
HETATM   20  O   UNK     0     -39.962  49.114  16.380  0.00  0.00    -0.360 OA
HETATM   21  H   UNK     0     -40.587  49.717  16.814  0.00  0.00     0.217 HD
ENDBRANCH   5  20
TORSDOF 8
ENDMDL
MODEL 3
REMARK VINA RESULT:      -6.4      2.811      6.710
REMARK  8 active torsions:
REMARK  status: ('A' for Active; 'I' for Inactive)
REMARK    1  A    between atoms: O_1  and  C_7 
REMARK    2  A    between atoms: O_2  and  C_15 
REMARK    3  A    between atoms: O_3  and  C_17 
REMARK    4  A    between atoms: N_4  and  C_5 
REMARK    5  A    between atoms: N_4  and  C_6 
REMARK    6  A    between atoms: C_6  and  C_7 
REMARK    7  A    between atoms: C_7  and  C_11 
REMARK    8  A    between atoms: C_14  and  C_17 
ROOT
HETATM    1  C   UNK     0     -38.049  49.876  15.474  0.00  0.00    -0.027 A 
HETATM    2  C   UNK     0     -38.914  48.916  15.969  0.00  0.00     0.022 A 
HETATM    3  C   UNK     0     -38.468  50.829  14.562  0.00  0.00     0.012 A 
HETATM    4  C   UNK     0     -40.241  48.908  15.537  0.00  0.00    -0.001 A 
HETATM    5  C   UNK     0     -40.680  49.861  14.618  0.00  0.00     0.074 A 
HETATM    6  C   UNK     0     -39.794  50.821  14.130  0.00  0.00     0.038 A 
ENDROOT
BRANCH   1   7
HETATM    7  C   UNK     0     -36.610  49.885  15.942  0.00  0.00     0.179 C 
BRANCH   7   8
HETATM    8  O   UNK     0     -36.603  49.792  17.366  0.00  0.00    -0.389 OA
HETATM    9  H   UNK     0     -37.340  50.331  17.699  0.00  0.00     0.210 HD
ENDBRANCH   7   8
BRANCH   7  10
HETATM   10  C   UNK     0     -35.879  51.155  15.489  0.00  0.00     0.306 C 
BRANCH  10  11
HETATM   11  N   UNK     0     -34.441  51.003  15.634  0.00  0.00     0.094 N 
HETATM   12  H   UNK     0     -34.238  50.343  16.385  0.00  0.00     0.317 HD
BRANCH  11  13
HETATM   13  C   UNK     0     -33.811  52.297  15.918  0.00  0.00     0.147 C 
HETATM   14  C   UNK     0     -32.574  52.445  15.025  0.00  0.00     0.048 C 
HETATM   15  C   UNK     0     -34.820  53.409  15.610  0.00  0.00     0.048 C 
HETATM   16  C   UNK     0     -33.404  52.350  17.395  0.00  0.00     0.048 C 
ENDBRANCH  11  13
ENDBRANCH  10  11
ENDBRANCH   7  10
ENDBRANCH   1   7
BRANCH   4  17
HETATM   17  C   UNK     0     -41.176  47.872  16.069  0.00  0.00     0.205 C 
BRANCH  17  18
HETATM   18  O   UNK     0     -41.698  47.165  14.953  0.00  0.00    -0.396 OA
HETATM   19  H   UNK     0     -42.339  47.753  14.517  0.00  0.00     0.209 HD
ENDBRANCH  17  18
ENDBRANCH   4  17
BRANCH   5  20
HETATM   20  O   UNK     0     -41.973  49.867  14.185  0.00  0.00    -0.360 OA
HETATM   21  H   UNK     0     -42.012  50.121  13.249  0.00  0.00     0.217 HD
ENDBRANCH   5  20
TORSDOF 8
ENDMDL
