MODEL 1
REMARK VINA RESULT:      -6.2      0.000      0.000
REMARK  8 active torsions:
REMARK  status: ('A' for Active; 'I' for Inactive)
REMARK    1  A    between atoms: O_1  and  C_7 
REMARK    2  A    between atoms: O_2  and  C_15 
REMARK    3  A    between atoms: O_3  and  C_17 
REMARK    4  A    between atoms: N_4  and  C_5 
REMARK    5  A    between atoms: N_4  and  C_6 
REMARK    6  A    between atoms: C_6  and  C_7 
REMARK    7  A    between atoms: C_7  and  C_11 
REMARK    8  A    between atoms: C_14  and  C_17 
ROOT
HETATM    1  C   UNK     0     -32.308 -58.088  10.125  0.00  0.00    -0.027 A 
HETATM    2  C   UNK     0     -32.766 -56.825   9.790  0.00  0.00     0.022 A 
HETATM    3  C   UNK     0     -32.755 -59.219   9.466  0.00  0.00     0.012 A 
HETATM    4  C   UNK     0     -33.702 -56.691   8.764  0.00  0.00    -0.001 A 
HETATM    5  C   UNK     0     -34.163 -57.821   8.089  0.00  0.00     0.074 A 
HETATM    6  C   UNK     0     -33.690 -59.086   8.440  0.00  0.00     0.038 A 
ENDROOT
BRANCH   1   7
HETATM    7  C   UNK     0     -31.292 -58.233  11.237  0.00  0.00     0.179 C 
BRANCH   7   8
HETATM    8  O   UNK     0     -30.833 -56.931  11.596  0.00  0.00    -0.389 OA
HETATM    9  H   UNK     0     -31.200 -56.721  12.471  0.00  0.00     0.210 HD
ENDBRANCH   7   8
BRANCH   7  10
HETATM   10  C   UNK     0     -30.112 -59.114  10.810  0.00  0.00     0.306 C 
BRANCH  10  11
HETATM   11  N   UNK     0     -28.975 -58.300  10.415  0.00  0.00     0.094 N 
HETATM   12  H   UNK     0     -29.137 -57.330  10.683  0.00  0.00     0.317 HD
BRANCH  11  13
HETATM   13  C   UNK     0     -28.752 -58.392   8.968  0.00  0.00     0.147 C 
HETATM   14  C   UNK     0     -29.440 -59.658   8.447  0.00  0.00     0.048 C 
HETATM   15  C   UNK     0     -29.356 -57.152   8.301  0.00  0.00     0.048 C 
HETATM   16  C   UNK     0     -27.246 -58.458   8.691  0.00  0.00     0.048 C 
ENDBRANCH  11  13
ENDBRANCH  10  11
ENDBRANCH   7  10
ENDBRANCH   1   7
BRANCH   4  17
HETATM   17  C   UNK     0     -34.199 -55.330   8.402  0.00  0.00     0.205 C 
BRANCH  17  18
HETATM   18  O   UNK     0     -35.619 -55.382   8.423  0.00  0.00    -0.396 OA
HETATM   19  H   UNK     0     -35.887 -55.485   9.353  0.00  0.00     0.209 HD
ENDBRANCH  17  18
ENDBRANCH   4  17
BRANCH   5  20
HETATM   20  O   UNK     0     -35.078 -57.708   7.085  0.00  0.00    -0.360 OA
HETATM   21  H   UNK     0     -35.960 -57.540   7.452  0.00  0.00     0.217 HD
ENDBRANCH   5  20
TORSDOF 8
ENDMDL
MODEL 2
REMARK VINA RESULT:      -5.8      2.625      5.244
REMARK  8 active torsions:
REMARK  status: ('A' for Active; 'I' for Inactive)
REMARK    1  A    between atoms: O_1  and  C_7 
REMARK    2  A    between atoms: O_2  and  C_15 
REMARK    3  A    between atoms: O_3  and  C_17 
REMARK    4  A    between atoms: N_4  and  C_5 
REMARK    5  A    between atoms: N_4  and  C_6 
REMARK    6  A    between atoms: C_6  and  C_7 
REMARK    7  A    between atoms: C_7  and  C_11 
REMARK    8  A    between atoms: C_14  and  C_17 
ROOT
HETATM    1  C   UNK     0     -32.035 -57.894   9.713  0.00  0.00    -0.027 A 
HETATM    2  C   UNK     0     -30.784 -57.301   9.710  0.00  0.00     0.022 A 
HETATM    3  C   UNK     0     -32.188 -59.264   9.597  0.00  0.00     0.012 A 
HETATM    4  C   UNK     0     -29.651 -58.105   9.587  0.00  0.00    -0.001 A 
HETATM    5  C   UNK     0     -29.786 -59.488   9.468  0.00  0.00     0.074 A 
HETATM    6  C   UNK     0     -31.055 -60.068   9.473  0.00  0.00     0.038 A 
ENDROOT
BRANCH   1   7
HETATM    7  C   UNK     0     -33.264 -57.022   9.848  0.00  0.00     0.179 C 
BRANCH   7   8
HETATM    8  O   UNK     0     -34.401 -57.789   9.454  0.00  0.00    -0.389 OA
HETATM    9  H   UNK     0     -35.111 -57.612  10.093  0.00  0.00     0.210 HD
ENDBRANCH   7   8
BRANCH   7  10
HETATM   10  C   UNK     0     -33.154 -55.757   8.989  0.00  0.00     0.306 C 
BRANCH  10  11
HETATM   11  N   UNK     0     -34.038 -55.834   7.838  0.00  0.00     0.094 N 
HETATM   12  H   UNK     0     -34.539 -56.722   7.847  0.00  0.00     0.317 HD
BRANCH  11  13
HETATM   13  C   UNK     0     -33.276 -55.699   6.592  0.00  0.00     0.147 C 
HETATM   14  C   UNK     0     -32.117 -54.726   6.831  0.00  0.00     0.048 C 
HETATM   15  C   UNK     0     -32.734 -57.078   6.199  0.00  0.00     0.048 C 
HETATM   16  C   UNK     0     -34.197 -55.162   5.490  0.00  0.00     0.048 C 
ENDBRANCH  11  13
ENDBRANCH  10  11
ENDBRANCH   7  10
ENDBRANCH   1   7
BRANCH   4  17
HETATM   17  C   UNK     0     -28.300 -57.467   9.582  0.00  0.00     0.205 C 
BRANCH  17  18
HETATM   18  O   UNK     0     -27.552 -58.059  10.635  0.00  0.00    -0.396 OA
HETATM   19  H   UNK     0     -27.654 -59.023  10.551  0.00  0.00     0.209 HD
ENDBRANCH  17  18
ENDBRANCH   4  17
BRANCH   5  20
HETATM   20  O   UNK     0     -28.690 -60.288   9.346  0.00  0.00    -0.360 OA
HETATM   21  H   UNK     0     -28.770 -60.851   8.559  0.00  0.00     0.217 HD
ENDBRANCH   5  20
TORSDOF 8
ENDMDL
MODEL 3
REMARK VINA RESULT:      -5.7      3.045      5.726
REMARK  8 active torsions:
REMARK  status: ('A' for Active; 'I' for Inactive)
REMARK    1  A    between atoms: O_1  and  C_7 
REMARK    2  A    between atoms: O_2  and  C_15 
REMARK    3  A    between atoms: O_3  and  C_17 
REMARK    4  A    between atoms: N_4  and  C_5 
REMARK    5  A    between atoms: N_4  and  C_6 
REMARK    6  A    between atoms: C_6  and  C_7 
REMARK    7  A    between atoms: C_7  and  C_11 
REMARK    8  A    between atoms: C_14  and  C_17 
ROOT
HETATM    1  C   UNK     0     -30.185 -56.723   7.905  0.00  0.00    -0.027 A 
HETATM    2  C   UNK     0     -30.586 -58.030   8.126  0.00  0.00     0.022 A 
HETATM    3  C   UNK     0     -29.232 -56.113   8.702  0.00  0.00     0.012 A 
HETATM    4  C   UNK     0     -30.016 -58.748   9.177  0.00  0.00    -0.001 A 
HETATM    5  C   UNK     0     -29.054 -58.149   9.990  0.00  0.00     0.074 A 
HETATM    6  C   UNK     0     -28.662 -56.831   9.753  0.00  0.00     0.038 A 
ENDROOT
BRANCH   1   7
HETATM    7  C   UNK     0     -30.803 -55.944   6.765  0.00  0.00     0.179 C 
BRANCH   7   8
HETATM    8  O   UNK     0     -29.815 -55.058   6.242  0.00  0.00    -0.389 OA
HETATM    9  H   UNK     0     -28.966 -55.530   6.248  0.00  0.00     0.210 HD
ENDBRANCH   7   8
BRANCH   7  10
HETATM   10  C   UNK     0     -32.034 -55.154   7.226  0.00  0.00     0.306 C 
BRANCH  10  11
HETATM   11  N   UNK     0     -33.259 -55.859   6.886  0.00  0.00     0.094 N 
HETATM   12  H   UNK     0     -33.787 -55.322   6.199  0.00  0.00     0.317 HD
BRANCH  11  13
HETATM   13  C   UNK     0     -34.075 -56.083   8.084  0.00  0.00     0.147 C 
HETATM   14  C   UNK     0     -33.384 -55.415   9.278  0.00  0.00     0.048 C 
HETATM   15  C   UNK     0     -35.456 -55.459   7.857  0.00  0.00     0.048 C 
HETATM   16  C   UNK     0     -34.212 -57.590   8.330  0.00  0.00     0.048 C 
ENDBRANCH  11  13
ENDBRANCH  10  11
ENDBRANCH   7  10
ENDBRANCH   1   7
BRANCH   4  17
HETATM   17  C   UNK     0     -30.448 -60.157   9.417  0.00  0.00     0.205 C 
BRANCH  17  18
HETATM   18  O   UNK     0     -31.003 -60.210  10.724  0.00  0.00    -0.396 OA
HETATM   19  H   UNK     0     -31.028 -61.146  10.986  0.00  0.00     0.209 HD
ENDBRANCH  17  18
ENDBRANCH   4  17
BRANCH   5  20
HETATM   20  O   UNK     0     -28.487 -58.836  11.021  0.00  0.00    -0.360 OA
HETATM   21  H   UNK     0     -27.848 -59.483  10.683  0.00  0.00     0.217 HD
ENDBRANCH   5  20
TORSDOF 8
ENDMDL
