MODEL 1
REMARK VINA RESULT:      -6.5      0.000      0.000
REMARK  8 active torsions:
REMARK  status: ('A' for Active; 'I' for Inactive)
REMARK    1  A    between atoms: O_1  and  C_7 
REMARK    2  A    between atoms: O_2  and  C_15 
REMARK    3  A    between atoms: O_3  and  C_17 
REMARK    4  A    between atoms: N_4  and  C_5 
REMARK    5  A    between atoms: N_4  and  C_6 
REMARK    6  A    between atoms: C_6  and  C_7 
REMARK    7  A    between atoms: C_7  and  C_11 
REMARK    8  A    between atoms: C_14  and  C_17 
ROOT
HETATM    1  C   UNK     0      -4.634  19.270 -26.454  0.00  0.00    -0.027 A 
HETATM    2  C   UNK     0      -4.410  18.667 -25.228  0.00  0.00     0.022 A 
HETATM    3  C   UNK     0      -3.647  19.996 -27.096  0.00  0.00     0.012 A 
HETATM    4  C   UNK     0      -3.159  18.796 -24.626  0.00  0.00    -0.001 A 
HETATM    5  C   UNK     0      -2.151  19.524 -25.259  0.00  0.00     0.074 A 
HETATM    6  C   UNK     0      -2.395  20.124 -26.494  0.00  0.00     0.038 A 
ENDROOT
BRANCH   1   7
HETATM    7  C   UNK     0      -5.992  19.131 -27.108  0.00  0.00     0.179 C 
BRANCH   7   8
HETATM    8  O   UNK     0      -6.974  19.022 -26.080  0.00  0.00    -0.389 OA
HETATM    9  H   UNK     0      -6.574  18.532 -25.342  0.00  0.00     0.210 HD
ENDBRANCH   7   8
BRANCH   7  10
HETATM   10  C   UNK     0      -6.049  17.906 -28.030  0.00  0.00     0.306 C 
BRANCH  10  11
HETATM   11  N   UNK     0      -6.901  16.873 -27.464  0.00  0.00     0.094 N 
HETATM   12  H   UNK     0      -7.287  17.192 -26.577  0.00  0.00     0.317 HD
BRANCH  11  13
HETATM   13  C   UNK     0      -6.145  15.632 -27.267  0.00  0.00     0.147 C 
HETATM   14  C   UNK     0      -4.748  15.809 -27.872  0.00  0.00     0.048 C 
HETATM   15  C   UNK     0      -6.036  15.360 -25.762  0.00  0.00     0.048 C 
HETATM   16  C   UNK     0      -6.877  14.476 -27.959  0.00  0.00     0.048 C 
ENDBRANCH  11  13
ENDBRANCH  10  11
ENDBRANCH   7  10
ENDBRANCH   1   7
BRANCH   4  17
HETATM   17  C   UNK     0      -2.915  18.147 -23.303  0.00  0.00     0.205 C 
BRANCH  17  18
HETATM   18  O   UNK     0      -1.875  17.197 -23.485  0.00  0.00    -0.396 OA
HETATM   19  H   UNK     0      -2.246  16.323 -23.274  0.00  0.00     0.209 HD
ENDBRANCH  17  18
ENDBRANCH   4  17
BRANCH   5  20
HETATM   20  O   UNK     0      -0.923  19.660 -24.684  0.00  0.00    -0.360 OA
HETATM   21  H   UNK     0      -0.354  20.219 -25.236  0.00  0.00     0.217 HD
ENDBRANCH   5  20
TORSDOF 8
ENDMDL
MODEL 2
REMARK VINA RESULT:      -6.4      1.737      2.204
REMARK  8 active torsions:
REMARK  status: ('A' for Active; 'I' for Inactive)
REMARK    1  A    between atoms: O_1  and  C_7 
REMARK    2  A    between atoms: O_2  and  C_15 
REMARK    3  A    between atoms: O_3  and  C_17 
REMARK    4  A    between atoms: N_4  and  C_5 
REMARK    5  A    between atoms: N_4  and  C_6 
REMARK    6  A    between atoms: C_6  and  C_7 
REMARK    7  A    between atoms: C_7  and  C_11 
REMARK    8  A    between atoms: C_14  and  C_17 
ROOT
HETATM    1  C   UNK     0      -4.104  17.526 -25.583  0.00  0.00    -0.027 A 
HETATM    2  C   UNK     0      -3.274  17.518 -24.475  0.00  0.00     0.022 A 
HETATM    3  C   UNK     0      -4.017  18.516 -26.546  0.00  0.00     0.012 A 
HETATM    4  C   UNK     0      -2.328  18.531 -24.326  0.00  0.00    -0.001 A 
HETATM    5  C   UNK     0      -2.226  19.538 -25.287  0.00  0.00     0.074 A 
HETATM    6  C   UNK     0      -3.071  19.530 -26.397  0.00  0.00     0.038 A 
ENDROOT
BRANCH   1   7
HETATM    7  C   UNK     0      -5.130  16.426 -25.745  0.00  0.00     0.179 C 
BRANCH   7   8
HETATM    8  O   UNK     0      -5.180  15.679 -24.531  0.00  0.00    -0.389 OA
HETATM    9  H   UNK     0      -5.260  14.740 -24.767  0.00  0.00     0.210 HD
ENDBRANCH   7   8
BRANCH   7  10
HETATM   10  C   UNK     0      -4.787  15.505 -26.922  0.00  0.00     0.306 C 
BRANCH  10  11
HETATM   11  N   UNK     0      -5.983  15.154 -27.670  0.00  0.00     0.094 N 
HETATM   12  H   UNK     0      -6.789  15.640 -27.279  0.00  0.00     0.317 HD
BRANCH  11  13
HETATM   13  C   UNK     0      -6.205  13.704 -27.636  0.00  0.00     0.147 C 
HETATM   14  C   UNK     0      -5.031  13.047 -26.903  0.00  0.00     0.048 C 
HETATM   15  C   UNK     0      -7.514  13.428 -26.888  0.00  0.00     0.048 C 
HETATM   16  C   UNK     0      -6.296  13.171 -29.071  0.00  0.00     0.048 C 
ENDBRANCH  11  13
ENDBRANCH  10  11
ENDBRANCH   7  10
ENDBRANCH   1   7
BRANCH   4  17
HETATM   17  C   UNK     0      -1.431  18.525 -23.131  0.00  0.00     0.205 C 
BRANCH  17  18
HETATM   18  O   UNK     0      -0.101  18.689 -23.602  0.00  0.00    -0.396 OA
HETATM   19  H   UNK     0       0.286  17.800 -23.680  0.00  0.00     0.209 HD
ENDBRANCH  17  18
ENDBRANCH   4  17
BRANCH   5  20
HETATM   20  O   UNK     0      -1.308  20.536 -25.157  0.00  0.00    -0.360 OA
HETATM   21  H   UNK     0      -1.743  21.360 -24.888  0.00  0.00     0.217 HD
ENDBRANCH   5  20
TORSDOF 8
ENDMDL
MODEL 3
REMARK VINA RESULT:      -6.3      1.126      2.444
REMARK  8 active torsions:
REMARK  status: ('A' for Active; 'I' for Inactive)
REMARK    1  A    between atoms: O_1  and  C_7 
REMARK    2  A    between atoms: O_2  and  C_15 
REMARK    3  A    between atoms: O_3  and  C_17 
REMARK    4  A    between atoms: N_4  and  C_5 
REMARK    5  A    between atoms: N_4  and  C_6 
REMARK    6  A    between atoms: C_6  and  C_7 
REMARK    7  A    between atoms: C_7  and  C_11 
REMARK    8  A    between atoms: C_14  and  C_17 
ROOT
HETATM    1  C   UNK     0      -4.537  18.316 -25.838  0.00  0.00    -0.027 A 
HETATM    2  C   UNK     0      -3.618  19.135 -26.472  0.00  0.00     0.022 A 
HETATM    3  C   UNK     0      -4.300  17.801 -24.576  0.00  0.00     0.012 A 
HETATM    4  C   UNK     0      -2.424  19.446 -25.823  0.00  0.00    -0.001 A 
HETATM    5  C   UNK     0      -2.167  18.936 -24.550  0.00  0.00     0.074 A 
HETATM    6  C   UNK     0      -3.105  18.113 -23.927  0.00  0.00     0.038 A 
ENDROOT
BRANCH   1   7
HETATM    7  C   UNK     0      -5.833  17.978 -26.542  0.00  0.00     0.179 C 
BRANCH   7   8
HETATM    8  O   UNK     0      -6.832  18.898 -26.105  0.00  0.00    -0.389 OA
HETATM    9  H   UNK     0      -6.434  19.784 -26.102  0.00  0.00     0.210 HD
ENDBRANCH   7   8
BRANCH   7  10
HETATM   10  C   UNK     0      -6.273  16.538 -26.250  0.00  0.00     0.306 C 
BRANCH  10  11
HETATM   11  N   UNK     0      -6.612  15.842 -27.480  0.00  0.00     0.094 N 
HETATM   12  H   UNK     0      -7.620  15.698 -27.528  0.00  0.00     0.317 HD
BRANCH  11  13
HETATM   13  C   UNK     0      -5.916  14.553 -27.551  0.00  0.00     0.147 C 
HETATM   14  C   UNK     0      -6.649  13.656 -28.555  0.00  0.00     0.048 C 
HETATM   15  C   UNK     0      -4.477  14.799 -28.019  0.00  0.00     0.048 C 
HETATM   16  C   UNK     0      -5.914  13.900 -26.164  0.00  0.00     0.048 C 
ENDBRANCH  11  13
ENDBRANCH  10  11
ENDBRANCH   7  10
ENDBRANCH   1   7
BRANCH   4  17
HETATM   17  C   UNK     0      -1.430  20.328 -26.505  0.00  0.00     0.205 C 
BRANCH  17  18
HETATM   18  O   UNK     0      -1.254  21.476 -25.687  0.00  0.00    -0.396 OA
HETATM   19  H   UNK     0      -1.860  22.160 -26.020  0.00  0.00     0.209 HD
ENDBRANCH  17  18
ENDBRANCH   4  17
BRANCH   5  20
HETATM   20  O   UNK     0      -1.005  19.230 -23.903  0.00  0.00    -0.360 OA
HETATM   21  H   UNK     0      -0.684  18.452 -23.419  0.00  0.00     0.217 HD
ENDBRANCH   5  20
TORSDOF 8
ENDMDL
