MODEL 1
REMARK VINA RESULT:      -6.7      0.000      0.000
REMARK  8 active torsions:
REMARK  status: ('A' for Active; 'I' for Inactive)
REMARK    1  A    between atoms: O_1  and  C_7 
REMARK    2  A    between atoms: O_2  and  C_15 
REMARK    3  A    between atoms: O_3  and  C_17 
REMARK    4  A    between atoms: N_4  and  C_5 
REMARK    5  A    between atoms: N_4  and  C_6 
REMARK    6  A    between atoms: C_6  and  C_7 
REMARK    7  A    between atoms: C_7  and  C_11 
REMARK    8  A    between atoms: C_14  and  C_17 
ROOT
HETATM    1  C   UNK     0       3.230   6.072  20.702  0.00  0.00    -0.027 A 
HETATM    2  C   UNK     0       2.879   7.007  19.744  0.00  0.00     0.022 A 
HETATM    3  C   UNK     0       2.607   4.839  20.775  0.00  0.00     0.012 A 
HETATM    4  C   UNK     0       1.871   6.698  18.830  0.00  0.00    -0.001 A 
HETATM    5  C   UNK     0       1.231   5.460  18.889  0.00  0.00     0.074 A 
HETATM    6  C   UNK     0       1.599   4.530  19.862  0.00  0.00     0.038 A 
ENDROOT
BRANCH   1   7
HETATM    7  C   UNK     0       4.324   6.406  21.693  0.00  0.00     0.179 C 
BRANCH   7   8
HETATM    8  O   UNK     0       3.758   6.397  23.003  0.00  0.00    -0.389 OA
HETATM    9  H   UNK     0       3.173   7.169  23.075  0.00  0.00     0.210 HD
ENDBRANCH   7   8
BRANCH   7  10
HETATM   10  C   UNK     0       4.954   7.772  21.396  0.00  0.00     0.306 C 
BRANCH  10  11
HETATM   11  N   UNK     0       6.405   7.693  21.438  0.00  0.00     0.094 N 
HETATM   12  H   UNK     0       6.743   8.039  22.335  0.00  0.00     0.317 HD
BRANCH  11  13
HETATM   13  C   UNK     0       6.996   8.470  20.344  0.00  0.00     0.147 C 
HETATM   14  C   UNK     0       7.727   7.509  19.401  0.00  0.00     0.048 C 
HETATM   15  C   UNK     0       5.870   9.190  19.592  0.00  0.00     0.048 C 
HETATM   16  C   UNK     0       7.981   9.493  20.922  0.00  0.00     0.048 C 
ENDBRANCH  11  13
ENDBRANCH  10  11
ENDBRANCH   7  10
ENDBRANCH   1   7
BRANCH   4  17
HETATM   17  C   UNK     0       1.489   7.706  17.796  0.00  0.00     0.205 C 
BRANCH  17  18
HETATM   18  O   UNK     0       0.074   7.832  17.834  0.00  0.00    -0.396 OA
HETATM   19  H   UNK     0      -0.172   8.494  17.166  0.00  0.00     0.209 HD
ENDBRANCH  17  18
ENDBRANCH   4  17
BRANCH   5  20
HETATM   20  O   UNK     0       0.244   5.143  18.005  0.00  0.00    -0.360 OA
HETATM   21  H   UNK     0       0.390   4.254  17.643  0.00  0.00     0.217 HD
ENDBRANCH   5  20
TORSDOF 8
ENDMDL
MODEL 2
REMARK VINA RESULT:      -6.6      2.235      3.159
REMARK  8 active torsions:
REMARK  status: ('A' for Active; 'I' for Inactive)
REMARK    1  A    between atoms: O_1  and  C_7 
REMARK    2  A    between atoms: O_2  and  C_15 
REMARK    3  A    between atoms: O_3  and  C_17 
REMARK    4  A    between atoms: N_4  and  C_5 
REMARK    5  A    between atoms: N_4  and  C_6 
REMARK    6  A    between atoms: C_6  and  C_7 
REMARK    7  A    between atoms: C_7  and  C_11 
REMARK    8  A    between atoms: C_14  and  C_17 
ROOT
HETATM    1  C   UNK     0       3.744   7.271  20.798  0.00  0.00    -0.027 A 
HETATM    2  C   UNK     0       3.049   7.234  19.601  0.00  0.00     0.022 A 
HETATM    3  C   UNK     0       3.690   6.223  21.700  0.00  0.00     0.012 A 
HETATM    4  C   UNK     0       2.277   6.113  19.297  0.00  0.00    -0.001 A 
HETATM    5  C   UNK     0       2.211   5.047  20.195  0.00  0.00     0.074 A 
HETATM    6  C   UNK     0       2.918   5.102  21.396  0.00  0.00     0.038 A 
ENDROOT
BRANCH   1   7
HETATM    7  C   UNK     0       4.582   8.487  21.128  0.00  0.00     0.179 C 
BRANCH   7   8
HETATM    8  O   UNK     0       3.913   9.229  22.145  0.00  0.00    -0.389 OA
HETATM    9  H   UNK     0       4.136  10.166  22.020  0.00  0.00     0.210 HD
ENDBRANCH   7   8
BRANCH   7  10
HETATM   10  C   UNK     0       4.810   9.366  19.891  0.00  0.00     0.306 C 
BRANCH  10  11
HETATM   11  N   UNK     0       4.006  10.574  19.961  0.00  0.00     0.094 N 
HETATM   12  H   UNK     0       3.070  10.346  20.295  0.00  0.00     0.317 HD
BRANCH  11  13
HETATM   13  C   UNK     0       3.927  11.219  18.646  0.00  0.00     0.147 C 
HETATM   14  C   UNK     0       3.119  12.513  18.783  0.00  0.00     0.048 C 
HETATM   15  C   UNK     0       5.350  11.534  18.171  0.00  0.00     0.048 C 
HETATM   16  C   UNK     0       3.241  10.270  17.656  0.00  0.00     0.048 C 
ENDBRANCH  11  13
ENDBRANCH  10  11
ENDBRANCH   7  10
ENDBRANCH   1   7
BRANCH   4  17
HETATM   17  C   UNK     0       1.525   6.072  18.007  0.00  0.00     0.205 C 
BRANCH  17  18
HETATM   18  O   UNK     0       0.153   5.881  18.325  0.00  0.00    -0.396 OA
HETATM   19  H   UNK     0      -0.084   6.559  18.981  0.00  0.00     0.209 HD
ENDBRANCH  17  18
ENDBRANCH   4  17
BRANCH   5  20
HETATM   20  O   UNK     0       1.460   3.945  19.914  0.00  0.00    -0.360 OA
HETATM   21  H   UNK     0       1.172   3.963  18.987  0.00  0.00     0.217 HD
ENDBRANCH   5  20
TORSDOF 8
ENDMDL
MODEL 3
REMARK VINA RESULT:      -6.6      2.195      2.856
REMARK  8 active torsions:
REMARK  status: ('A' for Active; 'I' for Inactive)
REMARK    1  A    between atoms: O_1  and  C_7 
REMARK    2  A    between atoms: O_2  and  C_15 
REMARK    3  A    between atoms: O_3  and  C_17 
REMARK    4  A    between atoms: N_4  and  C_5 
REMARK    5  A    between atoms: N_4  and  C_6 
REMARK    6  A    between atoms: C_6  and  C_7 
REMARK    7  A    between atoms: C_7  and  C_11 
REMARK    8  A    between atoms: C_14  and  C_17 
ROOT
HETATM    1  C   UNK     0       3.824   7.497  20.050  0.00  0.00    -0.027 A 
HETATM    2  C   UNK     0       2.838   7.398  19.082  0.00  0.00     0.022 A 
HETATM    3  C   UNK     0       3.981   6.529  21.025  0.00  0.00     0.012 A 
HETATM    4  C   UNK     0       1.984   6.296  19.092  0.00  0.00    -0.001 A 
HETATM    5  C   UNK     0       2.129   5.310  20.068  0.00  0.00     0.074 A 
HETATM    6  C   UNK     0       3.127   5.426  21.035  0.00  0.00     0.038 A 
ENDROOT
BRANCH   1   7
HETATM    7  C   UNK     0       4.751   8.693  20.040  0.00  0.00     0.179 C 
BRANCH   7   8
HETATM    8  O   UNK     0       4.074   9.788  20.654  0.00  0.00    -0.389 OA
HETATM    9  H   UNK     0       3.579  10.255  19.961  0.00  0.00     0.210 HD
ENDBRANCH   7   8
BRANCH   7  10
HETATM   10  C   UNK     0       5.175   9.064  18.614  0.00  0.00     0.306 C 
BRANCH  10  11
HETATM   11  N   UNK     0       6.480   8.505  18.300  0.00  0.00     0.094 N 
HETATM   12  H   UNK     0       7.155   9.257  18.170  0.00  0.00     0.317 HD
BRANCH  11  13
HETATM   13  C   UNK     0       6.409   7.677  17.091  0.00  0.00     0.147 C 
HETATM   14  C   UNK     0       7.703   7.867  16.293  0.00  0.00     0.048 C 
HETATM   15  C   UNK     0       6.260   6.211  17.512  0.00  0.00     0.048 C 
HETATM   16  C   UNK     0       5.202   8.109  16.250  0.00  0.00     0.048 C 
ENDBRANCH  11  13
ENDBRANCH  10  11
ENDBRANCH   7  10
ENDBRANCH   1   7
BRANCH   4  17
HETATM   17  C   UNK     0       0.920   6.188  18.050  0.00  0.00     0.205 C 
BRANCH  17  18
HETATM   18  O   UNK     0      -0.329   6.366  18.704  0.00  0.00    -0.396 OA
HETATM   19  H   UNK     0      -0.911   6.840  18.085  0.00  0.00     0.209 HD
ENDBRANCH  17  18
ENDBRANCH   4  17
BRANCH   5  20
HETATM   20  O   UNK     0       1.302   4.227  20.092  0.00  0.00    -0.360 OA
HETATM   21  H   UNK     0       1.524   3.651  20.841  0.00  0.00     0.217 HD
ENDBRANCH   5  20
TORSDOF 8
ENDMDL
