MODEL 1
REMARK VINA RESULT:      -7.0      0.000      0.000
REMARK  8 active torsions:
REMARK  status: ('A' for Active; 'I' for Inactive)
REMARK    1  A    between atoms: O_1  and  C_7 
REMARK    2  A    between atoms: O_2  and  C_15 
REMARK    3  A    between atoms: O_3  and  C_17 
REMARK    4  A    between atoms: N_4  and  C_5 
REMARK    5  A    between atoms: N_4  and  C_6 
REMARK    6  A    between atoms: C_6  and  C_7 
REMARK    7  A    between atoms: C_7  and  C_11 
REMARK    8  A    between atoms: C_14  and  C_17 
ROOT
HETATM    1  C   UNK     0      31.383  18.576   1.553  0.00  0.00    -0.027 A 
HETATM    2  C   UNK     0      30.728  18.898   2.729  0.00  0.00     0.022 A 
HETATM    3  C   UNK     0      32.685  18.979   1.315  0.00  0.00     0.012 A 
HETATM    4  C   UNK     0      31.396  19.648   3.697  0.00  0.00    -0.001 A 
HETATM    5  C   UNK     0      32.709  20.064   3.474  0.00  0.00     0.074 A 
HETATM    6  C   UNK     0      33.354  19.729   2.283  0.00  0.00     0.038 A 
ENDROOT
BRANCH   1   7
HETATM    7  C   UNK     0      30.659  17.762   0.503  0.00  0.00     0.179 C 
BRANCH   7   8
HETATM    8  O   UNK     0      29.525  17.150   1.116  0.00  0.00    -0.389 OA
HETATM    9  H   UNK     0      28.771  17.754   1.007  0.00  0.00     0.210 HD
ENDBRANCH   7   8
BRANCH   7  10
HETATM   10  C   UNK     0      31.572  16.693  -0.109  0.00  0.00     0.306 C 
BRANCH  10  11
HETATM   11  N   UNK     0      30.828  15.477  -0.393  0.00  0.00     0.094 N 
HETATM   12  H   UNK     0      31.288  14.681   0.048  0.00  0.00     0.317 HD
BRANCH  11  13
HETATM   13  C   UNK     0      30.725  15.261  -1.840  0.00  0.00     0.147 C 
HETATM   14  C   UNK     0      32.011  15.765  -2.503  0.00  0.00     0.048 C 
HETATM   15  C   UNK     0      30.553  13.759  -2.097  0.00  0.00     0.048 C 
HETATM   16  C   UNK     0      29.515  16.030  -2.383  0.00  0.00     0.048 C 
ENDBRANCH  11  13
ENDBRANCH  10  11
ENDBRANCH   7  10
ENDBRANCH   1   7
BRANCH   4  17
HETATM   17  C   UNK     0      30.690  19.999   4.965  0.00  0.00     0.205 C 
BRANCH  17  18
HETATM   18  O   UNK     0      29.634  19.062   5.132  0.00  0.00    -0.396 OA
HETATM   19  H   UNK     0      29.943  18.216   4.764  0.00  0.00     0.209 HD
ENDBRANCH  17  18
ENDBRANCH   4  17
BRANCH   5  20
HETATM   20  O   UNK     0      33.376  20.797   4.408  0.00  0.00    -0.360 OA
HETATM   21  H   UNK     0      34.316  20.863   4.176  0.00  0.00     0.217 HD
ENDBRANCH   5  20
TORSDOF 8
ENDMDL
MODEL 2
REMARK VINA RESULT:      -6.8      1.265      1.464
REMARK  8 active torsions:
REMARK  status: ('A' for Active; 'I' for Inactive)
REMARK    1  A    between atoms: O_1  and  C_7 
REMARK    2  A    between atoms: O_2  and  C_15 
REMARK    3  A    between atoms: O_3  and  C_17 
REMARK    4  A    between atoms: N_4  and  C_5 
REMARK    5  A    between atoms: N_4  and  C_6 
REMARK    6  A    between atoms: C_6  and  C_7 
REMARK    7  A    between atoms: C_7  and  C_11 
REMARK    8  A    between atoms: C_14  and  C_17 
ROOT
HETATM    1  C   UNK     0      31.235  17.984   1.042  0.00  0.00    -0.027 A 
HETATM    2  C   UNK     0      31.002  18.703   2.201  0.00  0.00     0.022 A 
HETATM    3  C   UNK     0      32.492  17.926   0.465  0.00  0.00     0.012 A 
HETATM    4  C   UNK     0      32.059  19.387   2.802  0.00  0.00    -0.001 A 
HETATM    5  C   UNK     0      33.333  19.340   2.234  0.00  0.00     0.074 A 
HETATM    6  C   UNK     0      33.549  18.610   1.066  0.00  0.00     0.038 A 
ENDROOT
BRANCH   1   7
HETATM    7  C   UNK     0      30.089  17.242   0.390  0.00  0.00     0.179 C 
BRANCH   7   8
HETATM    8  O   UNK     0      29.177  16.842   1.412  0.00  0.00    -0.389 OA
HETATM    9  H   UNK     0      29.203  15.873   1.466  0.00  0.00     0.210 HD
ENDBRANCH   7   8
BRANCH   7  10
HETATM   10  C   UNK     0      30.582  16.017  -0.390  0.00  0.00     0.306 C 
BRANCH  10  11
HETATM   11  N   UNK     0      30.292  16.155  -1.807  0.00  0.00     0.094 N 
HETATM   12  H   UNK     0      29.297  16.007  -1.971  0.00  0.00     0.317 HD
BRANCH  11  13
HETATM   13  C   UNK     0      31.079  15.197  -2.591  0.00  0.00     0.147 C 
HETATM   14  C   UNK     0      32.540  15.276  -2.136  0.00  0.00     0.048 C 
HETATM   15  C   UNK     0      30.524  13.790  -2.342  0.00  0.00     0.048 C 
HETATM   16  C   UNK     0      30.971  15.549  -4.079  0.00  0.00     0.048 C 
ENDBRANCH  11  13
ENDBRANCH  10  11
ENDBRANCH   7  10
ENDBRANCH   1   7
BRANCH   4  17
HETATM   17  C   UNK     0      31.809  20.165   4.052  0.00  0.00     0.205 C 
BRANCH  17  18
HETATM   18  O   UNK     0      32.571  19.556   5.086  0.00  0.00    -0.396 OA
HETATM   19  H   UNK     0      33.328  20.141   5.265  0.00  0.00     0.209 HD
ENDBRANCH  17  18
ENDBRANCH   4  17
BRANCH   5  20
HETATM   20  O   UNK     0      34.376  20.002   2.808  0.00  0.00    -0.360 OA
HETATM   21  H   UNK     0      34.713  20.685   2.205  0.00  0.00     0.217 HD
ENDBRANCH   5  20
TORSDOF 8
ENDMDL
MODEL 3
REMARK VINA RESULT:      -6.8      1.437      1.659
REMARK  8 active torsions:
REMARK  status: ('A' for Active; 'I' for Inactive)
REMARK    1  A    between atoms: O_1  and  C_7 
REMARK    2  A    between atoms: O_2  and  C_15 
REMARK    3  A    between atoms: O_3  and  C_17 
REMARK    4  A    between atoms: N_4  and  C_5 
REMARK    5  A    between atoms: N_4  and  C_6 
REMARK    6  A    between atoms: C_6  and  C_7 
REMARK    7  A    between atoms: C_7  and  C_11 
REMARK    8  A    between atoms: C_14  and  C_17 
ROOT
HETATM    1  C   UNK     0      31.137  18.054   1.053  0.00  0.00    -0.027 A 
HETATM    2  C   UNK     0      30.964  18.771   2.224  0.00  0.00     0.022 A 
HETATM    3  C   UNK     0      32.375  17.946   0.444  0.00  0.00     0.012 A 
HETATM    4  C   UNK     0      32.065  19.402   2.803  0.00  0.00    -0.001 A 
HETATM    5  C   UNK     0      33.321  19.304   2.203  0.00  0.00     0.074 A 
HETATM    6  C   UNK     0      33.476  18.577   1.024  0.00  0.00     0.038 A 
ENDROOT
BRANCH   1   7
HETATM    7  C   UNK     0      29.943  17.369   0.424  0.00  0.00     0.179 C 
BRANCH   7   8
HETATM    8  O   UNK     0      29.208  16.714   1.457  0.00  0.00    -0.389 OA
HETATM    9  H   UNK     0      29.693  16.842   2.288  0.00  0.00     0.210 HD
ENDBRANCH   7   8
BRANCH   7  10
HETATM   10  C   UNK     0      30.373  16.358  -0.646  0.00  0.00     0.306 C 
BRANCH  10  11
HETATM   11  N   UNK     0      29.303  15.416  -0.928  0.00  0.00     0.094 N 
HETATM   12  H   UNK     0      29.595  14.475  -0.670  0.00  0.00     0.317 HD
BRANCH  11  13
HETATM   13  C   UNK     0      28.939  15.459  -2.348  0.00  0.00     0.147 C 
HETATM   14  C   UNK     0      30.158  15.926  -3.151  0.00  0.00     0.048 C 
HETATM   15  C   UNK     0      28.527  14.050  -2.789  0.00  0.00     0.048 C 
HETATM   16  C   UNK     0      27.772  16.434  -2.545  0.00  0.00     0.048 C 
ENDBRANCH  11  13
ENDBRANCH  10  11
ENDBRANCH   7  10
ENDBRANCH   1   7
BRANCH   4  17
HETATM   17  C   UNK     0      31.881  20.178   4.066  0.00  0.00     0.205 C 
BRANCH  17  18
HETATM   18  O   UNK     0      32.682  19.556   5.063  0.00  0.00    -0.396 OA
HETATM   19  H   UNK     0      32.158  19.543   5.882  0.00  0.00     0.209 HD
ENDBRANCH  17  18
ENDBRANCH   4  17
BRANCH   5  20
HETATM   20  O   UNK     0      34.406  19.915   2.756  0.00  0.00    -0.360 OA
HETATM   21  H   UNK     0      34.667  19.461   3.573  0.00  0.00     0.217 HD
ENDBRANCH   5  20
TORSDOF 8
ENDMDL
