MODEL 1
REMARK VINA RESULT:      -7.6      0.000      0.000
REMARK  8 active torsions:
REMARK  status: ('A' for Active; 'I' for Inactive)
REMARK    1  A    between atoms: O_1  and  C_7 
REMARK    2  A    between atoms: O_2  and  C_15 
REMARK    3  A    between atoms: O_3  and  C_17 
REMARK    4  A    between atoms: N_4  and  C_5 
REMARK    5  A    between atoms: N_4  and  C_6 
REMARK    6  A    between atoms: C_6  and  C_7 
REMARK    7  A    between atoms: C_7  and  C_11 
REMARK    8  A    between atoms: C_14  and  C_17 
ROOT
HETATM    1  C   UNK     0      33.515  36.764  53.244  0.00  0.00    -0.027 A 
HETATM    2  C   UNK     0      34.868  36.748  53.535  0.00  0.00     0.022 A 
HETATM    3  C   UNK     0      33.004  36.107  52.139  0.00  0.00     0.012 A 
HETATM    4  C   UNK     0      35.737  36.054  52.693  0.00  0.00    -0.001 A 
HETATM    5  C   UNK     0      35.239  35.386  51.574  0.00  0.00     0.074 A 
HETATM    6  C   UNK     0      33.873  35.413  51.297  0.00  0.00     0.038 A 
ENDROOT
BRANCH   1   7
HETATM    7  C   UNK     0      32.572  37.516  54.157  0.00  0.00     0.179 C 
BRANCH   7   8
HETATM    8  O   UNK     0      32.547  36.852  55.420  0.00  0.00    -0.389 OA
HETATM    9  H   UNK     0      32.295  35.927  55.260  0.00  0.00     0.210 HD
ENDBRANCH   7   8
BRANCH   7  10
HETATM   10  C   UNK     0      31.158  37.590  53.568  0.00  0.00     0.306 C 
BRANCH  10  11
HETATM   11  N   UNK     0      30.211  36.869  54.403  0.00  0.00     0.094 N 
HETATM   12  H   UNK     0      30.705  36.172  54.960  0.00  0.00     0.317 HD
BRANCH  11  13
HETATM   13  C   UNK     0      29.186  36.220  53.579  0.00  0.00     0.147 C 
HETATM   14  C   UNK     0      28.979  37.054  52.310  0.00  0.00     0.048 C 
HETATM   15  C   UNK     0      29.673  34.814  53.211  0.00  0.00     0.048 C 
HETATM   16  C   UNK     0      27.877  36.133  54.373  0.00  0.00     0.048 C 
ENDBRANCH  11  13
ENDBRANCH  10  11
ENDBRANCH   7  10
ENDBRANCH   1   7
BRANCH   4  17
HETATM   17  C   UNK     0      37.198  36.037  53.005  0.00  0.00     0.205 C 
BRANCH  17  18
HETATM   18  O   UNK     0      37.493  34.767  53.568  0.00  0.00    -0.396 OA
HETATM   19  H   UNK     0      37.030  34.102  53.030  0.00  0.00     0.209 HD
ENDBRANCH  17  18
ENDBRANCH   4  17
BRANCH   5  20
HETATM   20  O   UNK     0      36.075  34.704  50.741  0.00  0.00    -0.360 OA
HETATM   21  H   UNK     0      36.871  35.229  50.562  0.00  0.00     0.217 HD
ENDBRANCH   5  20
TORSDOF 8
ENDMDL
MODEL 2
REMARK VINA RESULT:      -7.0      1.298      2.512
REMARK  8 active torsions:
REMARK  status: ('A' for Active; 'I' for Inactive)
REMARK    1  A    between atoms: O_1  and  C_7 
REMARK    2  A    between atoms: O_2  and  C_15 
REMARK    3  A    between atoms: O_3  and  C_17 
REMARK    4  A    between atoms: N_4  and  C_5 
REMARK    5  A    between atoms: N_4  and  C_6 
REMARK    6  A    between atoms: C_6  and  C_7 
REMARK    7  A    between atoms: C_7  and  C_11 
REMARK    8  A    between atoms: C_14  and  C_17 
ROOT
HETATM    1  C   UNK     0      33.529  36.676  52.925  0.00  0.00    -0.027 A 
HETATM    2  C   UNK     0      32.891  36.241  51.776  0.00  0.00     0.022 A 
HETATM    3  C   UNK     0      34.852  36.363  53.182  0.00  0.00     0.012 A 
HETATM    4  C   UNK     0      33.600  35.469  50.856  0.00  0.00    -0.001 A 
HETATM    5  C   UNK     0      34.935  35.144  51.098  0.00  0.00     0.074 A 
HETATM    6  C   UNK     0      35.561  35.591  52.262  0.00  0.00     0.038 A 
ENDROOT
BRANCH   1   7
HETATM    7  C   UNK     0      32.761  37.514  53.924  0.00  0.00     0.179 C 
BRANCH   7   8
HETATM    8  O   UNK     0      32.859  36.888  55.202  0.00  0.00    -0.389 OA
HETATM    9  H   UNK     0      32.483  37.498  55.857  0.00  0.00     0.210 HD
ENDBRANCH   7   8
BRANCH   7  10
HETATM   10  C   UNK     0      31.290  37.665  53.518  0.00  0.00     0.306 C 
BRANCH  10  11
HETATM   11  N   UNK     0      30.446  36.767  54.289  0.00  0.00     0.094 N 
HETATM   12  H   UNK     0      31.008  36.006  54.667  0.00  0.00     0.317 HD
BRANCH  11  13
HETATM   13  C   UNK     0      29.367  36.229  53.453  0.00  0.00     0.147 C 
HETATM   14  C   UNK     0      29.249  37.091  52.192  0.00  0.00     0.048 C 
HETATM   15  C   UNK     0      29.717  34.786  53.074  0.00  0.00     0.048 C 
HETATM   16  C   UNK     0      28.052  36.262  54.240  0.00  0.00     0.048 C 
ENDBRANCH  11  13
ENDBRANCH  10  11
ENDBRANCH   7  10
ENDBRANCH   1   7
BRANCH   4  17
HETATM   17  C   UNK     0      32.913  34.997  49.616  0.00  0.00     0.205 C 
BRANCH  17  18
HETATM   18  O   UNK     0      31.583  35.497  49.655  0.00  0.00    -0.396 OA
HETATM   19  H   UNK     0      31.024  34.791  50.022  0.00  0.00     0.209 HD
ENDBRANCH  17  18
ENDBRANCH   4  17
BRANCH   5  20
HETATM   20  O   UNK     0      35.641  34.390  50.210  0.00  0.00    -0.360 OA
HETATM   21  H   UNK     0      35.502  33.446  50.386  0.00  0.00     0.217 HD
ENDBRANCH   5  20
TORSDOF 8
ENDMDL
MODEL 3
REMARK VINA RESULT:      -6.4      2.354      3.316
REMARK  8 active torsions:
REMARK  status: ('A' for Active; 'I' for Inactive)
REMARK    1  A    between atoms: O_1  and  C_7 
REMARK    2  A    between atoms: O_2  and  C_15 
REMARK    3  A    between atoms: O_3  and  C_17 
REMARK    4  A    between atoms: N_4  and  C_5 
REMARK    5  A    between atoms: N_4  and  C_6 
REMARK    6  A    between atoms: C_6  and  C_7 
REMARK    7  A    between atoms: C_7  and  C_11 
REMARK    8  A    between atoms: C_14  and  C_17 
ROOT
HETATM    1  C   UNK     0      32.922  36.521  52.195  0.00  0.00    -0.027 A 
HETATM    2  C   UNK     0      33.494  35.744  51.203  0.00  0.00     0.022 A 
HETATM    3  C   UNK     0      33.640  36.919  53.310  0.00  0.00     0.012 A 
HETATM    4  C   UNK     0      34.827  35.352  51.330  0.00  0.00    -0.001 A 
HETATM    5  C   UNK     0      35.565  35.743  52.447  0.00  0.00     0.074 A 
HETATM    6  C   UNK     0      34.972  36.526  53.437  0.00  0.00     0.038 A 
ENDROOT
BRANCH   1   7
HETATM    7  C   UNK     0      31.476  36.948  52.058  0.00  0.00     0.179 C 
BRANCH   7   8
HETATM    8  O   UNK     0      31.077  37.575  53.275  0.00  0.00    -0.389 OA
HETATM    9  H   UNK     0      31.860  38.009  53.652  0.00  0.00     0.210 HD
ENDBRANCH   7   8
BRANCH   7  10
HETATM   10  C   UNK     0      30.564  35.754  51.751  0.00  0.00     0.306 C 
BRANCH  10  11
HETATM   11  N   UNK     0      30.082  35.810  50.381  0.00  0.00     0.094 N 
HETATM   12  H   UNK     0      29.160  36.244  50.358  0.00  0.00     0.317 HD
BRANCH  11  13
HETATM   13  C   UNK     0      30.018  34.464  49.801  0.00  0.00     0.147 C 
HETATM   14  C   UNK     0      31.029  34.378  48.653  0.00  0.00     0.048 C 
HETATM   15  C   UNK     0      30.370  33.445  50.891  0.00  0.00     0.048 C 
HETATM   16  C   UNK     0      28.601  34.205  49.276  0.00  0.00     0.048 C 
ENDBRANCH  11  13
ENDBRANCH  10  11
ENDBRANCH   7  10
ENDBRANCH   1   7
BRANCH   4  17
HETATM   17  C   UNK     0      35.446  34.513  50.262  0.00  0.00     0.205 C 
BRANCH  17  18
HETATM   18  O   UNK     0      34.427  34.215  49.317  0.00  0.00    -0.396 OA
HETATM   19  H   UNK     0      33.733  34.888  49.425  0.00  0.00     0.209 HD
ENDBRANCH  17  18
ENDBRANCH   4  17
BRANCH   5  20
HETATM   20  O   UNK     0      36.868  35.368  52.587  0.00  0.00    -0.360 OA
HETATM   21  H   UNK     0      37.023  35.019  53.480  0.00  0.00     0.217 HD
ENDBRANCH   5  20
TORSDOF 8
ENDMDL
