MODEL 1
REMARK VINA RESULT:      -6.3      0.000      0.000
REMARK  8 active torsions:
REMARK  status: ('A' for Active; 'I' for Inactive)
REMARK    1  A    between atoms: O_1  and  C_7 
REMARK    2  A    between atoms: O_2  and  C_15 
REMARK    3  A    between atoms: O_3  and  C_17 
REMARK    4  A    between atoms: N_4  and  C_5 
REMARK    5  A    between atoms: N_4  and  C_6 
REMARK    6  A    between atoms: C_6  and  C_7 
REMARK    7  A    between atoms: C_7  and  C_11 
REMARK    8  A    between atoms: C_14  and  C_17 
ROOT
HETATM    1  C   UNK     0     -20.930 -41.816  25.618  0.00  0.00    -0.027 A 
HETATM    2  C   UNK     0     -20.735 -41.716  24.251  0.00  0.00     0.022 A 
HETATM    3  C   UNK     0     -21.385 -40.745  26.365  0.00  0.00     0.012 A 
HETATM    4  C   UNK     0     -21.005 -40.506  23.612  0.00  0.00    -0.001 A 
HETATM    5  C   UNK     0     -21.465 -39.415  24.351  0.00  0.00     0.074 A 
HETATM    6  C   UNK     0     -21.655 -39.534  25.727  0.00  0.00     0.038 A 
ENDROOT
BRANCH   1   7
HETATM    7  C   UNK     0     -20.638 -43.129  26.311  0.00  0.00     0.179 C 
BRANCH   7   8
HETATM    8  O   UNK     0     -19.929 -43.967  25.399  0.00  0.00    -0.389 OA
HETATM    9  H   UNK     0     -19.181 -43.455  25.050  0.00  0.00     0.210 HD
ENDBRANCH   7   8
BRANCH   7  10
HETATM   10  C   UNK     0     -21.926 -43.819  26.775  0.00  0.00     0.306 C 
BRANCH  10  11
HETATM   11  N   UNK     0     -21.633 -44.869  27.737  0.00  0.00     0.094 N 
HETATM   12  H   UNK     0     -20.630 -44.905  27.912  0.00  0.00     0.317 HD
BRANCH  11  13
HETATM   13  C   UNK     0     -22.106 -46.167  27.244  0.00  0.00     0.147 C 
HETATM   14  C   UNK     0     -22.795 -45.956  25.892  0.00  0.00     0.048 C 
HETATM   15  C   UNK     0     -20.898 -47.096  27.081  0.00  0.00     0.048 C 
HETATM   16  C   UNK     0     -23.096 -46.762  28.253  0.00  0.00     0.048 C 
ENDBRANCH  11  13
ENDBRANCH  10  11
ENDBRANCH   7  10
ENDBRANCH   1   7
BRANCH   4  17
HETATM   17  C   UNK     0     -20.795 -40.395  22.138  0.00  0.00     0.205 C 
BRANCH  17  18
HETATM   18  O   UNK     0     -22.029 -39.980  21.567  0.00  0.00    -0.396 OA
HETATM   19  H   UNK     0     -22.349 -39.229  22.096  0.00  0.00     0.209 HD
ENDBRANCH  17  18
ENDBRANCH   4  17
BRANCH   5  20
HETATM   20  O   UNK     0     -21.733 -38.225  23.742  0.00  0.00    -0.360 OA
HETATM   21  H   UNK     0     -22.002 -37.564  24.401  0.00  0.00     0.217 HD
ENDBRANCH   5  20
TORSDOF 8
ENDMDL
MODEL 2
REMARK VINA RESULT:      -6.3     38.824     42.187
REMARK  8 active torsions:
REMARK  status: ('A' for Active; 'I' for Inactive)
REMARK    1  A    between atoms: O_1  and  C_7 
REMARK    2  A    between atoms: O_2  and  C_15 
REMARK    3  A    between atoms: O_3  and  C_17 
REMARK    4  A    between atoms: N_4  and  C_5 
REMARK    5  A    between atoms: N_4  and  C_6 
REMARK    6  A    between atoms: C_6  and  C_7 
REMARK    7  A    between atoms: C_7  and  C_11 
REMARK    8  A    between atoms: C_14  and  C_17 
ROOT
HETATM    1  C   UNK     0     -24.060  -1.990  18.063  0.00  0.00    -0.027 A 
HETATM    2  C   UNK     0     -24.395  -2.523  19.296  0.00  0.00     0.022 A 
HETATM    3  C   UNK     0     -23.523  -2.774  17.057  0.00  0.00     0.012 A 
HETATM    4  C   UNK     0     -24.187  -3.882  19.529  0.00  0.00    -0.001 A 
HETATM    5  C   UNK     0     -23.647  -4.687  18.526  0.00  0.00     0.074 A 
HETATM    6  C   UNK     0     -23.315  -4.133  17.290  0.00  0.00     0.038 A 
ENDROOT
BRANCH   1   7
HETATM    7  C   UNK     0     -24.286  -0.516  17.810  0.00  0.00     0.179 C 
BRANCH   7   8
HETATM    8  O   UNK     0     -25.065   0.008  18.884  0.00  0.00    -0.389 OA
HETATM    9  H   UNK     0     -24.457   0.455  19.496  0.00  0.00     0.210 HD
ENDBRANCH   7   8
BRANCH   7  10
HETATM   10  C   UNK     0     -24.998  -0.278  16.472  0.00  0.00     0.306 C 
BRANCH  10  11
HETATM   11  N   UNK     0     -26.257   0.421  16.674  0.00  0.00     0.094 N 
HETATM   12  H   UNK     0     -26.995  -0.252  16.877  0.00  0.00     0.317 HD
BRANCH  11  13
HETATM   13  C   UNK     0     -26.606   1.208  15.486  0.00  0.00     0.147 C 
HETATM   14  C   UNK     0     -25.775   0.702  14.302  0.00  0.00     0.048 C 
HETATM   15  C   UNK     0     -28.100   1.021  15.199  0.00  0.00     0.048 C 
HETATM   16  C   UNK     0     -26.302   2.687  15.751  0.00  0.00     0.048 C 
ENDBRANCH  11  13
ENDBRANCH  10  11
ENDBRANCH   7  10
ENDBRANCH   1   7
BRANCH   4  17
HETATM   17  C   UNK     0     -24.547  -4.459  20.859  0.00  0.00     0.205 C 
BRANCH  17  18
HETATM   18  O   UNK     0     -23.348  -4.946  21.445  0.00  0.00    -0.396 OA
HETATM   19  H   UNK     0     -22.756  -5.199  20.716  0.00  0.00     0.209 HD
ENDBRANCH  17  18
ENDBRANCH   4  17
BRANCH   5  20
HETATM   20  O   UNK     0     -23.436  -6.016  18.738  0.00  0.00    -0.360 OA
HETATM   21  H   UNK     0     -24.283  -6.477  18.854  0.00  0.00     0.217 HD
ENDBRANCH   5  20
TORSDOF 8
ENDMDL
MODEL 3
REMARK VINA RESULT:      -6.3     38.901     42.303
REMARK  8 active torsions:
REMARK  status: ('A' for Active; 'I' for Inactive)
REMARK    1  A    between atoms: O_1  and  C_7 
REMARK    2  A    between atoms: O_2  and  C_15 
REMARK    3  A    between atoms: O_3  and  C_17 
REMARK    4  A    between atoms: N_4  and  C_5 
REMARK    5  A    between atoms: N_4  and  C_6 
REMARK    6  A    between atoms: C_6  and  C_7 
REMARK    7  A    between atoms: C_7  and  C_11 
REMARK    8  A    between atoms: C_14  and  C_17 
ROOT
HETATM    1  C   UNK     0     -24.147  -1.810  18.097  0.00  0.00    -0.027 A 
HETATM    2  C   UNK     0     -24.432  -2.408  19.312  0.00  0.00     0.022 A 
HETATM    3  C   UNK     0     -23.647  -2.538  17.031  0.00  0.00     0.012 A 
HETATM    4  C   UNK     0     -24.208  -3.776  19.467  0.00  0.00    -0.001 A 
HETATM    5  C   UNK     0     -23.704  -4.525  18.403  0.00  0.00     0.074 A 
HETATM    6  C   UNK     0     -23.423  -3.906  17.185  0.00  0.00     0.038 A 
ENDROOT
BRANCH   1   7
HETATM    7  C   UNK     0     -24.390  -0.326  17.929  0.00  0.00     0.179 C 
BRANCH   7   8
HETATM    8  O   UNK     0     -25.200   0.120  19.015  0.00  0.00    -0.389 OA
HETATM    9  H   UNK     0     -25.571   0.983  18.769  0.00  0.00     0.210 HD
ENDBRANCH   7   8
BRANCH   7  10
HETATM   10  C   UNK     0     -25.076  -0.016  16.592  0.00  0.00     0.306 C 
BRANCH  10  11
HETATM   11  N   UNK     0     -26.423   0.486  16.807  0.00  0.00     0.094 N 
HETATM   12  H   UNK     0     -27.059  -0.294  16.970  0.00  0.00     0.317 HD
BRANCH  11  13
HETATM   13  C   UNK     0     -26.872   1.268  15.650  0.00  0.00     0.147 C 
HETATM   14  C   UNK     0     -28.375   1.040  15.460  0.00  0.00     0.048 C 
HETATM   15  C   UNK     0     -26.595   2.750  15.926  0.00  0.00     0.048 C 
HETATM   16  C   UNK     0     -26.107   0.813  14.402  0.00  0.00     0.048 C 
ENDBRANCH  11  13
ENDBRANCH  10  11
ENDBRANCH   7  10
ENDBRANCH   1   7
BRANCH   4  17
HETATM   17  C   UNK     0     -24.514  -4.423  20.778  0.00  0.00     0.205 C 
BRANCH  17  18
HETATM   18  O   UNK     0     -23.287  -4.918  21.298  0.00  0.00    -0.396 OA
HETATM   19  H   UNK     0     -23.509  -5.631  21.921  0.00  0.00     0.209 HD
ENDBRANCH  17  18
ENDBRANCH   4  17
BRANCH   5  20
HETATM   20  O   UNK     0     -23.479  -5.862  18.538  0.00  0.00    -0.360 OA
HETATM   21  H   UNK     0     -24.305  -6.356  18.411  0.00  0.00     0.217 HD
ENDBRANCH   5  20
TORSDOF 8
ENDMDL
