MODEL 1
REMARK VINA RESULT:      -6.6      0.000      0.000
REMARK  8 active torsions:
REMARK  status: ('A' for Active; 'I' for Inactive)
REMARK    1  A    between atoms: O_1  and  C_7 
REMARK    2  A    between atoms: O_2  and  C_15 
REMARK    3  A    between atoms: O_3  and  C_17 
REMARK    4  A    between atoms: N_4  and  C_5 
REMARK    5  A    between atoms: N_4  and  C_6 
REMARK    6  A    between atoms: C_6  and  C_7 
REMARK    7  A    between atoms: C_7  and  C_11 
REMARK    8  A    between atoms: C_14  and  C_17 
ROOT
HETATM    1  C   UNK     0      39.134   4.219  35.780  0.00  0.00    -0.027 A 
HETATM    2  C   UNK     0      38.027   4.996  36.077  0.00  0.00     0.022 A 
HETATM    3  C   UNK     0      39.696   3.371  36.718  0.00  0.00     0.012 A 
HETATM    4  C   UNK     0      37.466   4.921  37.352  0.00  0.00    -0.001 A 
HETATM    5  C   UNK     0      38.019   4.071  38.309  0.00  0.00     0.074 A 
HETATM    6  C   UNK     0      39.134   3.296  37.992  0.00  0.00     0.038 A 
ENDROOT
BRANCH   1   7
HETATM    7  C   UNK     0      39.743   4.300  34.398  0.00  0.00     0.179 C 
BRANCH   7   8
HETATM    8  O   UNK     0      38.751   3.911  33.449  0.00  0.00    -0.389 OA
HETATM    9  H   UNK     0      38.006   4.529  33.533  0.00  0.00     0.210 HD
ENDBRANCH   7   8
BRANCH   7  10
HETATM   10  C   UNK     0      40.978   3.399  34.274  0.00  0.00     0.306 C 
BRANCH  10  11
HETATM   11  N   UNK     0      42.003   4.036  33.464  0.00  0.00     0.094 N 
HETATM   12  H   UNK     0      41.709   4.054  32.488  0.00  0.00     0.317 HD
BRANCH  11  13
HETATM   13  C   UNK     0      43.279   3.323  33.591  0.00  0.00     0.147 C 
HETATM   14  C   UNK     0      43.236   2.468  34.862  0.00  0.00     0.048 C 
HETATM   15  C   UNK     0      43.463   2.428  32.361  0.00  0.00     0.048 C 
HETATM   16  C   UNK     0      44.422   4.341  33.679  0.00  0.00     0.048 C 
ENDBRANCH  11  13
ENDBRANCH  10  11
ENDBRANCH   7  10
ENDBRANCH   1   7
BRANCH   4  17
HETATM   17  C   UNK     0      36.272   5.759  37.674  0.00  0.00     0.205 C 
BRANCH  17  18
HETATM   18  O   UNK     0      36.658   6.664  38.700  0.00  0.00    -0.396 OA
HETATM   19  H   UNK     0      36.968   7.475  38.263  0.00  0.00     0.209 HD
ENDBRANCH  17  18
ENDBRANCH   4  17
BRANCH   5  20
HETATM   20  O   UNK     0      37.483   3.987  39.559  0.00  0.00    -0.360 OA
HETATM   21  H   UNK     0      38.038   3.427  40.125  0.00  0.00     0.217 HD
ENDBRANCH   5  20
TORSDOF 8
ENDMDL
MODEL 2
REMARK VINA RESULT:      -6.0      2.062      2.921
REMARK  8 active torsions:
REMARK  status: ('A' for Active; 'I' for Inactive)
REMARK    1  A    between atoms: O_1  and  C_7 
REMARK    2  A    between atoms: O_2  and  C_15 
REMARK    3  A    between atoms: O_3  and  C_17 
REMARK    4  A    between atoms: N_4  and  C_5 
REMARK    5  A    between atoms: N_4  and  C_6 
REMARK    6  A    between atoms: C_6  and  C_7 
REMARK    7  A    between atoms: C_7  and  C_11 
REMARK    8  A    between atoms: C_14  and  C_17 
ROOT
HETATM    1  C   UNK     0      40.669   2.665  35.882  0.00  0.00    -0.027 A 
HETATM    2  C   UNK     0      40.009   2.739  37.097  0.00  0.00     0.022 A 
HETATM    3  C   UNK     0      40.321   3.477  34.817  0.00  0.00     0.012 A 
HETATM    4  C   UNK     0      38.968   3.654  37.250  0.00  0.00    -0.001 A 
HETATM    5  C   UNK     0      38.603   4.481  36.187  0.00  0.00     0.074 A 
HETATM    6  C   UNK     0      39.280   4.393  34.971  0.00  0.00     0.038 A 
ENDROOT
BRANCH   1   7
HETATM    7  C   UNK     0      41.799   1.672  35.715  0.00  0.00     0.179 C 
BRANCH   7   8
HETATM    8  O   UNK     0      42.522   1.608  36.943  0.00  0.00    -0.389 OA
HETATM    9  H   UNK     0      42.979   2.458  37.060  0.00  0.00     0.210 HD
ENDBRANCH   7   8
BRANCH   7  10
HETATM   10  C   UNK     0      42.735   2.072  34.568  0.00  0.00     0.306 C 
BRANCH  10  11
HETATM   11  N   UNK     0      44.058   2.400  35.070  0.00  0.00     0.094 N 
HETATM   12  H   UNK     0      43.983   3.100  35.808  0.00  0.00     0.317 HD
BRANCH  11  13
HETATM   13  C   UNK     0      44.912   2.901  33.988  0.00  0.00     0.147 C 
HETATM   14  C   UNK     0      46.367   2.545  34.308  0.00  0.00     0.048 C 
HETATM   15  C   UNK     0      44.482   2.232  32.678  0.00  0.00     0.048 C 
HETATM   16  C   UNK     0      44.753   4.423  33.879  0.00  0.00     0.048 C 
ENDBRANCH  11  13
ENDBRANCH  10  11
ENDBRANCH   7  10
ENDBRANCH   1   7
BRANCH   4  17
HETATM   17  C   UNK     0      38.253   3.735  38.559  0.00  0.00     0.205 C 
BRANCH  17  18
HETATM   18  O   UNK     0      36.954   3.193  38.363  0.00  0.00    -0.396 OA
HETATM   19  H   UNK     0      36.447   3.846  37.850  0.00  0.00     0.209 HD
ENDBRANCH  17  18
ENDBRANCH   4  17
BRANCH   5  20
HETATM   20  O   UNK     0      37.588   5.380  36.320  0.00  0.00    -0.360 OA
HETATM   21  H   UNK     0      36.988   5.106  37.032  0.00  0.00     0.217 HD
ENDBRANCH   5  20
TORSDOF 8
ENDMDL
MODEL 3
REMARK VINA RESULT:      -5.9      1.751      2.159
REMARK  8 active torsions:
REMARK  status: ('A' for Active; 'I' for Inactive)
REMARK    1  A    between atoms: O_1  and  C_7 
REMARK    2  A    between atoms: O_2  and  C_15 
REMARK    3  A    between atoms: O_3  and  C_17 
REMARK    4  A    between atoms: N_4  and  C_5 
REMARK    5  A    between atoms: N_4  and  C_6 
REMARK    6  A    between atoms: C_6  and  C_7 
REMARK    7  A    between atoms: C_7  and  C_11 
REMARK    8  A    between atoms: C_14  and  C_17 
ROOT
HETATM    1  C   UNK     0      38.773   3.256  37.506  0.00  0.00    -0.027 A 
HETATM    2  C   UNK     0      38.651   4.635  37.494  0.00  0.00     0.022 A 
HETATM    3  C   UNK     0      38.074   2.475  38.410  0.00  0.00     0.012 A 
HETATM    4  C   UNK     0      37.804   5.251  38.415  0.00  0.00    -0.001 A 
HETATM    5  C   UNK     0      37.093   4.479  39.334  0.00  0.00     0.074 A 
HETATM    6  C   UNK     0      37.228   3.091  39.332  0.00  0.00     0.038 A 
ENDROOT
BRANCH   1   7
HETATM    7  C   UNK     0      39.691   2.587  36.507  0.00  0.00     0.179 C 
BRANCH   7   8
HETATM    8  O   UNK     0      40.780   2.004  37.221  0.00  0.00    -0.389 OA
HETATM    9  H   UNK     0      41.512   1.886  36.594  0.00  0.00     0.210 HD
ENDBRANCH   7   8
BRANCH   7  10
HETATM   10  C   UNK     0      40.212   3.585  35.465  0.00  0.00     0.306 C 
BRANCH  10  11
HETATM   11  N   UNK     0      41.648   3.446  35.289  0.00  0.00     0.094 N 
HETATM   12  H   UNK     0      42.118   4.292  35.608  0.00  0.00     0.317 HD
BRANCH  11  13
HETATM   13  C   UNK     0      41.973   3.190  33.882  0.00  0.00     0.147 C 
HETATM   14  C   UNK     0      42.387   1.722  33.735  0.00  0.00     0.048 C 
HETATM   15  C   UNK     0      40.728   3.473  33.034  0.00  0.00     0.048 C 
HETATM   16  C   UNK     0      43.123   4.108  33.452  0.00  0.00     0.048 C 
ENDBRANCH  11  13
ENDBRANCH  10  11
ENDBRANCH   7  10
ENDBRANCH   1   7
BRANCH   4  17
HETATM   17  C   UNK     0      37.672   6.739  38.404  0.00  0.00     0.205 C 
BRANCH  17  18
HETATM   18  O   UNK     0      36.294   7.038  38.228  0.00  0.00    -0.396 OA
HETATM   19  H   UNK     0      36.125   7.047  37.270  0.00  0.00     0.209 HD
ENDBRANCH  17  18
ENDBRANCH   4  17
BRANCH   5  20
HETATM   20  O   UNK     0      36.262   5.066  40.241  0.00  0.00    -0.360 OA
HETATM   21  H   UNK     0      35.348   5.059  39.913  0.00  0.00     0.217 HD
ENDBRANCH   5  20
TORSDOF 8
ENDMDL
