MODEL 1
REMARK VINA RESULT:      -6.6      0.000      0.000
REMARK  8 active torsions:
REMARK  status: ('A' for Active; 'I' for Inactive)
REMARK    1  A    between atoms: O_1  and  C_7 
REMARK    2  A    between atoms: O_2  and  C_15 
REMARK    3  A    between atoms: O_3  and  C_17 
REMARK    4  A    between atoms: N_4  and  C_5 
REMARK    5  A    between atoms: N_4  and  C_6 
REMARK    6  A    between atoms: C_6  and  C_7 
REMARK    7  A    between atoms: C_7  and  C_11 
REMARK    8  A    between atoms: C_14  and  C_17 
ROOT
HETATM    1  C   UNK     0     -21.422   7.947  16.511  0.00  0.00    -0.027 A 
HETATM    2  C   UNK     0     -22.719   7.500  16.327  0.00  0.00     0.022 A 
HETATM    3  C   UNK     0     -20.470   7.168  17.146  0.00  0.00     0.012 A 
HETATM    4  C   UNK     0     -23.075   6.235  16.794  0.00  0.00    -0.001 A 
HETATM    5  C   UNK     0     -22.129   5.437  17.437  0.00  0.00     0.074 A 
HETATM    6  C   UNK     0     -20.827   5.903  17.614  0.00  0.00     0.038 A 
ENDROOT
BRANCH   1   7
HETATM    7  C   UNK     0     -21.034   9.319  16.004  0.00  0.00     0.179 C 
BRANCH   7   8
HETATM    8  O   UNK     0     -20.153   9.914  16.955  0.00  0.00    -0.389 OA
HETATM    9  H   UNK     0     -20.421  10.841  17.063  0.00  0.00     0.210 HD
ENDBRANCH   7   8
BRANCH   7  10
HETATM   10  C   UNK     0     -22.265  10.208  15.791  0.00  0.00     0.306 C 
BRANCH  10  11
HETATM   11  N   UNK     0     -22.496  10.442  14.375  0.00  0.00     0.094 N 
HETATM   12  H   UNK     0     -21.908  11.210  14.053  0.00  0.00     0.317 HD
BRANCH  11  13
HETATM   13  C   UNK     0     -23.908  10.752  14.127  0.00  0.00     0.147 C 
HETATM   14  C   UNK     0     -23.986  11.916  13.134  0.00  0.00     0.048 C 
HETATM   15  C   UNK     0     -24.583   9.509  13.535  0.00  0.00     0.048 C 
HETATM   16  C   UNK     0     -24.583  11.139  15.448  0.00  0.00     0.048 C 
ENDBRANCH  11  13
ENDBRANCH  10  11
ENDBRANCH   7  10
ENDBRANCH   1   7
BRANCH   4  17
HETATM   17  C   UNK     0     -24.475   5.752  16.598  0.00  0.00     0.205 C 
BRANCH  17  18
HETATM   18  O   UNK     0     -24.417   4.643  15.710  0.00  0.00    -0.396 OA
HETATM   19  H   UNK     0     -25.325   4.473  15.407  0.00  0.00     0.209 HD
ENDBRANCH  17  18
ENDBRANCH   4  17
BRANCH   5  20
HETATM   20  O   UNK     0     -22.461   4.199  17.900  0.00  0.00    -0.360 OA
HETATM   21  H   UNK     0     -22.280   4.136  18.852  0.00  0.00     0.217 HD
ENDBRANCH   5  20
TORSDOF 8
ENDMDL
MODEL 2
REMARK VINA RESULT:      -6.4      0.979      2.413
REMARK  8 active torsions:
REMARK  status: ('A' for Active; 'I' for Inactive)
REMARK    1  A    between atoms: O_1  and  C_7 
REMARK    2  A    between atoms: O_2  and  C_15 
REMARK    3  A    between atoms: O_3  and  C_17 
REMARK    4  A    between atoms: N_4  and  C_5 
REMARK    5  A    between atoms: N_4  and  C_6 
REMARK    6  A    between atoms: C_6  and  C_7 
REMARK    7  A    between atoms: C_7  and  C_11 
REMARK    8  A    between atoms: C_14  and  C_17 
ROOT
HETATM    1  C   UNK     0     -21.678   7.961  16.442  0.00  0.00    -0.027 A 
HETATM    2  C   UNK     0     -20.847   7.095  17.133  0.00  0.00     0.022 A 
HETATM    3  C   UNK     0     -22.995   7.638  16.167  0.00  0.00     0.012 A 
HETATM    4  C   UNK     0     -21.351   5.867  17.561  0.00  0.00    -0.001 A 
HETATM    5  C   UNK     0     -22.676   5.524  17.292  0.00  0.00     0.074 A 
HETATM    6  C   UNK     0     -23.498   6.410  16.595  0.00  0.00     0.038 A 
ENDROOT
BRANCH   1   7
HETATM    7  C   UNK     0     -21.132   9.294  15.978  0.00  0.00     0.179 C 
BRANCH   7   8
HETATM    8  O   UNK     0     -20.237   9.782  16.976  0.00  0.00    -0.389 OA
HETATM    9  H   UNK     0     -20.020   9.040  17.564  0.00  0.00     0.210 HD
ENDBRANCH   7   8
BRANCH   7  10
HETATM   10  C   UNK     0     -22.257  10.307  15.732  0.00  0.00     0.306 C 
BRANCH  10  11
HETATM   11  N   UNK     0     -22.457  10.522  14.309  0.00  0.00     0.094 N 
HETATM   12  H   UNK     0     -21.869  11.292  13.991  0.00  0.00     0.317 HD
BRANCH  11  13
HETATM   13  C   UNK     0     -23.866  10.815  14.024  0.00  0.00     0.147 C 
HETATM   14  C   UNK     0     -24.489   9.596  13.337  0.00  0.00     0.048 C 
HETATM   15  C   UNK     0     -24.583  11.098  15.349  0.00  0.00     0.048 C 
HETATM   16  C   UNK     0     -23.954  12.040  13.106  0.00  0.00     0.048 C 
ENDBRANCH  11  13
ENDBRANCH  10  11
ENDBRANCH   7  10
ENDBRANCH   1   7
BRANCH   4  17
HETATM   17  C   UNK     0     -20.456   4.930  18.304  0.00  0.00     0.205 C 
BRANCH  17  18
HETATM   18  O   UNK     0     -19.276   5.649  18.636  0.00  0.00    -0.396 OA
HETATM   19  H   UNK     0     -18.524   5.058  18.461  0.00  0.00     0.209 HD
ENDBRANCH  17  18
ENDBRANCH   4  17
BRANCH   5  20
HETATM   20  O   UNK     0     -23.183   4.328  17.702  0.00  0.00    -0.360 OA
HETATM   21  H   UNK     0     -23.537   4.404  18.603  0.00  0.00     0.217 HD
ENDBRANCH   5  20
TORSDOF 8
ENDMDL
MODEL 3
REMARK VINA RESULT:      -6.4      2.080      3.396
REMARK  8 active torsions:
REMARK  status: ('A' for Active; 'I' for Inactive)
REMARK    1  A    between atoms: O_1  and  C_7 
REMARK    2  A    between atoms: O_2  and  C_15 
REMARK    3  A    between atoms: O_3  and  C_17 
REMARK    4  A    between atoms: N_4  and  C_5 
REMARK    5  A    between atoms: N_4  and  C_6 
REMARK    6  A    between atoms: C_6  and  C_7 
REMARK    7  A    between atoms: C_7  and  C_11 
REMARK    8  A    between atoms: C_14  and  C_17 
ROOT
HETATM    1  C   UNK     0     -22.780   5.288  16.627  0.00  0.00    -0.027 A 
HETATM    2  C   UNK     0     -24.017   5.745  17.046  0.00  0.00     0.022 A 
HETATM    3  C   UNK     0     -22.619   4.021  16.092  0.00  0.00     0.012 A 
HETATM    4  C   UNK     0     -25.128   4.909  16.928  0.00  0.00    -0.001 A 
HETATM    5  C   UNK     0     -24.983   3.630  16.391  0.00  0.00     0.074 A 
HETATM    6  C   UNK     0     -23.729   3.186  15.974  0.00  0.00     0.038 A 
ENDROOT
BRANCH   1   7
HETATM    7  C   UNK     0     -21.575   6.194  16.755  0.00  0.00     0.179 C 
BRANCH   7   8
HETATM    8  O   UNK     0     -20.893   5.862  17.963  0.00  0.00    -0.389 OA
HETATM    9  H   UNK     0     -20.254   6.571  18.143  0.00  0.00     0.210 HD
ENDBRANCH   7   8
BRANCH   7  10
HETATM   10  C   UNK     0     -21.982   7.673  16.763  0.00  0.00     0.306 C 
BRANCH  10  11
HETATM   11  N   UNK     0     -21.010   8.481  16.047  0.00  0.00     0.094 N 
HETATM   12  H   UNK     0     -20.196   8.645  16.638  0.00  0.00     0.317 HD
BRANCH  11  13
HETATM   13  C   UNK     0     -21.601   9.759  15.638  0.00  0.00     0.147 C 
HETATM   14  C   UNK     0     -21.256  10.817  16.692  0.00  0.00     0.048 C 
HETATM   15  C   UNK     0     -21.014  10.157  14.280  0.00  0.00     0.048 C 
HETATM   16  C   UNK     0     -23.123   9.602  15.528  0.00  0.00     0.048 C 
ENDBRANCH  11  13
ENDBRANCH  10  11
ENDBRANCH   7  10
ENDBRANCH   1   7
BRANCH   4  17
HETATM   17  C   UNK     0     -26.463   5.400  17.381  0.00  0.00     0.205 C 
BRANCH  17  18
HETATM   18  O   UNK     0     -26.747   4.765  18.621  0.00  0.00    -0.396 OA
HETATM   19  H   UNK     0     -25.960   4.247  18.862  0.00  0.00     0.209 HD
ENDBRANCH  17  18
ENDBRANCH   4  17
BRANCH   5  20
HETATM   20  O   UNK     0     -26.058   2.800  16.269  0.00  0.00    -0.360 OA
HETATM   21  H   UNK     0     -26.882   3.313  16.289  0.00  0.00     0.217 HD
ENDBRANCH   5  20
TORSDOF 8
ENDMDL
