MODEL 1
REMARK VINA RESULT:      -6.5      0.000      0.000
REMARK  8 active torsions:
REMARK  status: ('A' for Active; 'I' for Inactive)
REMARK    1  A    between atoms: O_1  and  C_7 
REMARK    2  A    between atoms: O_2  and  C_15 
REMARK    3  A    between atoms: O_3  and  C_17 
REMARK    4  A    between atoms: N_4  and  C_5 
REMARK    5  A    between atoms: N_4  and  C_6 
REMARK    6  A    between atoms: C_6  and  C_7 
REMARK    7  A    between atoms: C_7  and  C_11 
REMARK    8  A    between atoms: C_14  and  C_17 
ROOT
HETATM    1  C   UNK     0     -18.324  36.496  42.322  0.00  0.00    -0.027 A 
HETATM    2  C   UNK     0     -17.605  36.287  41.158  0.00  0.00     0.022 A 
HETATM    3  C   UNK     0     -18.460  35.504  43.278  0.00  0.00     0.012 A 
HETATM    4  C   UNK     0     -17.002  35.048  40.944  0.00  0.00    -0.001 A 
HETATM    5  C   UNK     0     -17.129  34.036  41.896  0.00  0.00     0.074 A 
HETATM    6  C   UNK     0     -17.858  34.264  43.063  0.00  0.00     0.038 A 
ENDROOT
BRANCH   1   7
HETATM    7  C   UNK     0     -18.977  37.841  42.556  0.00  0.00     0.179 C 
BRANCH   7   8
HETATM    8  O   UNK     0     -18.244  38.523  43.571  0.00  0.00    -0.389 OA
HETATM    9  H   UNK     0     -17.449  38.898  43.157  0.00  0.00     0.210 HD
ENDBRANCH   7   8
BRANCH   7  10
HETATM   10  C   UNK     0     -20.445  37.688  42.972  0.00  0.00     0.306 C 
BRANCH  10  11
HETATM   11  N   UNK     0     -20.630  38.068  44.363  0.00  0.00     0.094 N 
HETATM   12  H   UNK     0     -19.746  37.985  44.863  0.00  0.00     0.317 HD
BRANCH  11  13
HETATM   13  C   UNK     0     -21.648  37.223  44.997  0.00  0.00     0.147 C 
HETATM   14  C   UNK     0     -22.506  38.098  45.917  0.00  0.00     0.048 C 
HETATM   15  C   UNK     0     -22.519  36.601  43.900  0.00  0.00     0.048 C 
HETATM   16  C   UNK     0     -20.958  36.121  45.810  0.00  0.00     0.048 C 
ENDBRANCH  11  13
ENDBRANCH  10  11
ENDBRANCH   7  10
ENDBRANCH   1   7
BRANCH   4  17
HETATM   17  C   UNK     0     -16.226  34.820  39.688  0.00  0.00     0.205 C 
BRANCH  17  18
HETATM   18  O   UNK     0     -14.952  34.317  40.066  0.00  0.00    -0.396 OA
HETATM   19  H   UNK     0     -14.443  34.187  39.248  0.00  0.00     0.209 HD
ENDBRANCH  17  18
ENDBRANCH   4  17
BRANCH   5  20
HETATM   20  O   UNK     0     -16.548  32.819  41.702  0.00  0.00    -0.360 OA
HETATM   21  H   UNK     0     -16.222  32.464  42.544  0.00  0.00     0.217 HD
ENDBRANCH   5  20
TORSDOF 8
ENDMDL
MODEL 2
REMARK VINA RESULT:      -6.5      1.054      2.314
REMARK  8 active torsions:
REMARK  status: ('A' for Active; 'I' for Inactive)
REMARK    1  A    between atoms: O_1  and  C_7 
REMARK    2  A    between atoms: O_2  and  C_15 
REMARK    3  A    between atoms: O_3  and  C_17 
REMARK    4  A    between atoms: N_4  and  C_5 
REMARK    5  A    between atoms: N_4  and  C_6 
REMARK    6  A    between atoms: C_6  and  C_7 
REMARK    7  A    between atoms: C_7  and  C_11 
REMARK    8  A    between atoms: C_14  and  C_17 
ROOT
HETATM    1  C   UNK     0     -17.950  36.739  41.258  0.00  0.00    -0.027 A 
HETATM    2  C   UNK     0     -17.559  35.553  41.856  0.00  0.00     0.022 A 
HETATM    3  C   UNK     0     -17.626  37.029  39.945  0.00  0.00     0.012 A 
HETATM    4  C   UNK     0     -16.820  34.630  41.117  0.00  0.00    -0.001 A 
HETATM    5  C   UNK     0     -16.484  34.906  39.791  0.00  0.00     0.074 A 
HETATM    6  C   UNK     0     -16.887  36.106  39.205  0.00  0.00     0.038 A 
ENDROOT
BRANCH   1   7
HETATM    7  C   UNK     0     -18.752  37.741  42.060  0.00  0.00     0.179 C 
BRANCH   7   8
HETATM    8  O   UNK     0     -17.883  38.804  42.445  0.00  0.00    -0.389 OA
HETATM    9  H   UNK     0     -17.508  39.185  41.633  0.00  0.00     0.210 HD
ENDBRANCH   7   8
BRANCH   7  10
HETATM   10  C   UNK     0     -19.383  37.094  43.299  0.00  0.00     0.306 C 
BRANCH  10  11
HETATM   11  N   UNK     0     -20.010  38.097  44.143  0.00  0.00     0.094 N 
HETATM   12  H   UNK     0     -19.348  38.418  44.849  0.00  0.00     0.317 HD
BRANCH  11  13
HETATM   13  C   UNK     0     -21.209  37.552  44.789  0.00  0.00     0.147 C 
HETATM   14  C   UNK     0     -22.358  37.561  43.775  0.00  0.00     0.048 C 
HETATM   15  C   UNK     0     -20.912  36.116  45.236  0.00  0.00     0.048 C 
HETATM   16  C   UNK     0     -21.570  38.417  46.002  0.00  0.00     0.048 C 
ENDBRANCH  11  13
ENDBRANCH  10  11
ENDBRANCH   7  10
ENDBRANCH   1   7
BRANCH   4  17
HETATM   17  C   UNK     0     -16.396  33.350  41.761  0.00  0.00     0.205 C 
BRANCH  17  18
HETATM   18  O   UNK     0     -17.473  32.915  42.580  0.00  0.00    -0.396 OA
HETATM   19  H   UNK     0     -17.222  32.049  42.944  0.00  0.00     0.209 HD
ENDBRANCH  17  18
ENDBRANCH   4  17
BRANCH   5  20
HETATM   20  O   UNK     0     -15.762  34.015  39.056  0.00  0.00    -0.360 OA
HETATM   21  H   UNK     0     -16.252  33.183  38.960  0.00  0.00     0.217 HD
ENDBRANCH   5  20
TORSDOF 8
ENDMDL
MODEL 3
REMARK VINA RESULT:      -6.2      1.310      2.197
REMARK  8 active torsions:
REMARK  status: ('A' for Active; 'I' for Inactive)
REMARK    1  A    between atoms: O_1  and  C_7 
REMARK    2  A    between atoms: O_2  and  C_15 
REMARK    3  A    between atoms: O_3  and  C_17 
REMARK    4  A    between atoms: N_4  and  C_5 
REMARK    5  A    between atoms: N_4  and  C_6 
REMARK    6  A    between atoms: C_6  and  C_7 
REMARK    7  A    between atoms: C_7  and  C_11 
REMARK    8  A    between atoms: C_14  and  C_17 
ROOT
HETATM    1  C   UNK     0     -18.056  36.875  42.668  0.00  0.00    -0.027 A 
HETATM    2  C   UNK     0     -17.289  35.726  42.575  0.00  0.00     0.022 A 
HETATM    3  C   UNK     0     -18.513  37.534  41.540  0.00  0.00     0.012 A 
HETATM    4  C   UNK     0     -16.970  35.221  41.314  0.00  0.00    -0.001 A 
HETATM    5  C   UNK     0     -17.423  35.873  40.167  0.00  0.00     0.074 A 
HETATM    6  C   UNK     0     -18.194  37.030  40.280  0.00  0.00     0.038 A 
ENDROOT
BRANCH   1   7
HETATM    7  C   UNK     0     -18.403  37.422  44.035  0.00  0.00     0.179 C 
BRANCH   7   8
HETATM    8  O   UNK     0     -17.208  37.472  44.813  0.00  0.00    -0.389 OA
HETATM    9  H   UNK     0     -17.251  38.269  45.367  0.00  0.00     0.210 HD
ENDBRANCH   7   8
BRANCH   7  10
HETATM   10  C   UNK     0     -19.458  36.558  44.736  0.00  0.00     0.306 C 
BRANCH  10  11
HETATM   11  N   UNK     0     -20.379  37.383  45.499  0.00  0.00     0.094 N 
HETATM   12  H   UNK     0     -20.187  37.283  46.495  0.00  0.00     0.317 HD
BRANCH  11  13
HETATM   13  C   UNK     0     -21.767  37.006  45.214  0.00  0.00     0.147 C 
HETATM   14  C   UNK     0     -22.034  35.625  45.823  0.00  0.00     0.048 C 
HETATM   15  C   UNK     0     -22.696  38.049  45.845  0.00  0.00     0.048 C 
HETATM   16  C   UNK     0     -21.980  36.962  43.696  0.00  0.00     0.048 C 
ENDBRANCH  11  13
ENDBRANCH  10  11
ENDBRANCH   7  10
ENDBRANCH   1   7
BRANCH   4  17
HETATM   17  C   UNK     0     -16.142  33.982  41.211  0.00  0.00     0.205 C 
BRANCH  17  18
HETATM   18  O   UNK     0     -15.000  34.304  40.429  0.00  0.00    -0.396 OA
HETATM   19  H   UNK     0     -15.207  34.063  39.510  0.00  0.00     0.209 HD
ENDBRANCH  17  18
ENDBRANCH   4  17
BRANCH   5  20
HETATM   20  O   UNK     0     -17.119  35.394  38.928  0.00  0.00    -0.360 OA
HETATM   21  H   UNK     0     -17.914  35.375  38.371  0.00  0.00     0.217 HD
ENDBRANCH   5  20
TORSDOF 8
ENDMDL
