MODEL 1
REMARK VINA RESULT:      -7.1      0.000      0.000
REMARK  8 active torsions:
REMARK  status: ('A' for Active; 'I' for Inactive)
REMARK    1  A    between atoms: O_1  and  C_7 
REMARK    2  A    between atoms: O_2  and  C_15 
REMARK    3  A    between atoms: O_3  and  C_17 
REMARK    4  A    between atoms: N_4  and  C_5 
REMARK    5  A    between atoms: N_4  and  C_6 
REMARK    6  A    between atoms: C_6  and  C_7 
REMARK    7  A    between atoms: C_7  and  C_11 
REMARK    8  A    between atoms: C_14  and  C_17 
ROOT
HETATM    1  C   UNK     0       8.152   9.764   3.989  0.00  0.00    -0.027 A 
HETATM    2  C   UNK     0       9.128   8.789   4.096  0.00  0.00     0.022 A 
HETATM    3  C   UNK     0       7.976  10.724   4.971  0.00  0.00     0.012 A 
HETATM    4  C   UNK     0       9.953   8.773   5.220  0.00  0.00    -0.001 A 
HETATM    5  C   UNK     0       9.790   9.732   6.219  0.00  0.00     0.074 A 
HETATM    6  C   UNK     0       8.801  10.708   6.095  0.00  0.00     0.038 A 
ENDROOT
BRANCH   1   7
HETATM    7  C   UNK     0       7.256   9.783   2.770  0.00  0.00     0.179 C 
BRANCH   7   8
HETATM    8  O   UNK     0       6.473   8.591   2.772  0.00  0.00    -0.389 OA
HETATM    9  H   UNK     0       7.059   7.853   2.535  0.00  0.00     0.210 HD
ENDBRANCH   7   8
BRANCH   7  10
HETATM   10  C   UNK     0       8.071   9.880   1.474  0.00  0.00     0.306 C 
BRANCH  10  11
HETATM   11  N   UNK     0       8.700  11.185   1.356  0.00  0.00     0.094 N 
HETATM   12  H   UNK     0       8.217  11.738   0.649  0.00  0.00     0.317 HD
BRANCH  11  13
HETATM   13  C   UNK     0      10.117  11.044   1.002  0.00  0.00     0.147 C 
HETATM   14  C   UNK     0      10.376   9.592   0.588  0.00  0.00     0.048 C 
HETATM   15  C   UNK     0      10.424  11.987  -0.167  0.00  0.00     0.048 C 
HETATM   16  C   UNK     0      10.981  11.410   2.214  0.00  0.00     0.048 C 
ENDBRANCH  11  13
ENDBRANCH  10  11
ENDBRANCH   7  10
ENDBRANCH   1   7
BRANCH   4  17
HETATM   17  C   UNK     0      11.006   7.720   5.338  0.00  0.00     0.205 C 
BRANCH  17  18
HETATM   18  O   UNK     0      10.790   7.044   6.569  0.00  0.00    -0.396 OA
HETATM   19  H   UNK     0      10.988   7.678   7.281  0.00  0.00     0.209 HD
ENDBRANCH  17  18
ENDBRANCH   4  17
BRANCH   5  20
HETATM   20  O   UNK     0      10.587   9.730   7.324  0.00  0.00    -0.360 OA
HETATM   21  H   UNK     0      10.758  10.639   7.617  0.00  0.00     0.217 HD
ENDBRANCH   5  20
TORSDOF 8
ENDMDL
MODEL 2
REMARK VINA RESULT:      -7.0      2.688      5.932
REMARK  8 active torsions:
REMARK  status: ('A' for Active; 'I' for Inactive)
REMARK    1  A    between atoms: O_1  and  C_7 
REMARK    2  A    between atoms: O_2  and  C_15 
REMARK    3  A    between atoms: O_3  and  C_17 
REMARK    4  A    between atoms: N_4  and  C_5 
REMARK    5  A    between atoms: N_4  and  C_6 
REMARK    6  A    between atoms: C_6  and  C_7 
REMARK    7  A    between atoms: C_7  and  C_11 
REMARK    8  A    between atoms: C_14  and  C_17 
ROOT
HETATM    1  C   UNK     0      10.071   9.653   2.940  0.00  0.00    -0.027 A 
HETATM    2  C   UNK     0      10.673   9.615   1.693  0.00  0.00     0.022 A 
HETATM    3  C   UNK     0       8.701   9.528   3.087  0.00  0.00     0.012 A 
HETATM    4  C   UNK     0       9.878   9.447   0.560  0.00  0.00    -0.001 A 
HETATM    5  C   UNK     0       8.495   9.320   0.689  0.00  0.00     0.074 A 
HETATM    6  C   UNK     0       7.907   9.360   1.953  0.00  0.00     0.038 A 
ENDROOT
BRANCH   1   7
HETATM    7  C   UNK     0      10.933   9.834   4.170  0.00  0.00     0.179 C 
BRANCH   7   8
HETATM    8  O   UNK     0      11.845   8.740   4.242  0.00  0.00    -0.389 OA
HETATM    9  H   UNK     0      11.833   8.407   5.155  0.00  0.00     0.210 HD
ENDBRANCH   7   8
BRANCH   7  10
HETATM   10  C   UNK     0      10.084   9.904   5.446  0.00  0.00     0.306 C 
BRANCH  10  11
HETATM   11  N   UNK     0      10.793   9.318   6.571  0.00  0.00     0.094 N 
HETATM   12  H   UNK     0      11.129   8.388   6.320  0.00  0.00     0.317 HD
BRANCH  11  13
HETATM   13  C   UNK     0       9.919   9.237   7.746  0.00  0.00     0.147 C 
HETATM   14  C   UNK     0       8.490   9.585   7.317  0.00  0.00     0.048 C 
HETATM   15  C   UNK     0       9.971   7.808   8.297  0.00  0.00     0.048 C 
HETATM   16  C   UNK     0      10.406  10.229   8.809  0.00  0.00     0.048 C 
ENDBRANCH  11  13
ENDBRANCH  10  11
ENDBRANCH   7  10
ENDBRANCH   1   7
BRANCH   4  17
HETATM   17  C   UNK     0      10.525   9.407  -0.786  0.00  0.00     0.205 C 
BRANCH  17  18
HETATM   18  O   UNK     0      10.468   8.061  -1.241  0.00  0.00    -0.396 OA
HETATM   19  H   UNK     0      11.128   7.971  -1.949  0.00  0.00     0.209 HD
ENDBRANCH  17  18
ENDBRANCH   4  17
BRANCH   5  20
HETATM   20  O   UNK     0       7.705   9.156  -0.408  0.00  0.00    -0.360 OA
HETATM   21  H   UNK     0       7.890   9.849  -1.062  0.00  0.00     0.217 HD
ENDBRANCH   5  20
TORSDOF 8
ENDMDL
MODEL 3
REMARK VINA RESULT:      -6.9      2.101      3.430
REMARK  8 active torsions:
REMARK  status: ('A' for Active; 'I' for Inactive)
REMARK    1  A    between atoms: O_1  and  C_7 
REMARK    2  A    between atoms: O_2  and  C_15 
REMARK    3  A    between atoms: O_3  and  C_17 
REMARK    4  A    between atoms: N_4  and  C_5 
REMARK    5  A    between atoms: N_4  and  C_6 
REMARK    6  A    between atoms: C_6  and  C_7 
REMARK    7  A    between atoms: C_7  and  C_11 
REMARK    8  A    between atoms: C_14  and  C_17 
ROOT
HETATM    1  C   UNK     0      11.150  10.500   3.629  0.00  0.00    -0.027 A 
HETATM    2  C   UNK     0       9.961  10.601   4.329  0.00  0.00     0.022 A 
HETATM    3  C   UNK     0      12.048   9.475   3.871  0.00  0.00     0.012 A 
HETATM    4  C   UNK     0       9.660   9.648   5.302  0.00  0.00    -0.001 A 
HETATM    5  C   UNK     0      10.553   8.607   5.559  0.00  0.00     0.074 A 
HETATM    6  C   UNK     0      11.747   8.521   4.843  0.00  0.00     0.038 A 
ENDROOT
BRANCH   1   7
HETATM    7  C   UNK     0      11.477  11.534   2.574  0.00  0.00     0.179 C 
BRANCH   7   8
HETATM    8  O   UNK     0      11.104  12.816   3.075  0.00  0.00    -0.389 OA
HETATM    9  H   UNK     0      10.136  12.828   3.160  0.00  0.00     0.210 HD
ENDBRANCH   7   8
BRANCH   7  10
HETATM   10  C   UNK     0      10.746  11.244   1.257  0.00  0.00     0.306 C 
BRANCH  10  11
HETATM   11  N   UNK     0      10.788   9.826   0.944  0.00  0.00     0.094 N 
HETATM   12  H   UNK     0      11.756   9.504   0.929  0.00  0.00     0.317 HD
BRANCH  11  13
HETATM   13  C   UNK     0      10.152   9.564  -0.351  0.00  0.00     0.147 C 
HETATM   14  C   UNK     0      10.764   8.293  -0.950  0.00  0.00     0.048 C 
HETATM   15  C   UNK     0       8.648   9.369  -0.126  0.00  0.00     0.048 C 
HETATM   16  C   UNK     0      10.393  10.756  -1.285  0.00  0.00     0.048 C 
ENDBRANCH  11  13
ENDBRANCH  10  11
ENDBRANCH   7  10
ENDBRANCH   1   7
BRANCH   4  17
HETATM   17  C   UNK     0       8.377   9.756   6.059  0.00  0.00     0.205 C 
BRANCH  17  18
HETATM   18  O   UNK     0       7.903  11.086   5.895  0.00  0.00    -0.396 OA
HETATM   19  H   UNK     0       7.092  11.035   5.359  0.00  0.00     0.209 HD
ENDBRANCH  17  18
ENDBRANCH   4  17
BRANCH   5  20
HETATM   20  O   UNK     0      10.275   7.668   6.506  0.00  0.00    -0.360 OA
HETATM   21  H   UNK     0      10.517   6.785   6.184  0.00  0.00     0.217 HD
ENDBRANCH   5  20
TORSDOF 8
ENDMDL
